data/ch09/ligand.pdb
 OpenBabel03232515043D

 58 61  0  0  0  0  0  0  0  0999 V2000
  -53.0630   -2.4490   28.9020 C   0  0  0  0  0  0  0  0  0  0  0  0
  -52.0770   -2.2460   26.8170 C   0  0  0  0  0  0  0  0  0  0  0  0
  -52.5490   -3.0530   27.8030 C   0  0  0  0  0  0  0  0  0  0  0  0
  -50.1940    1.3090   24.9150 C   0  0  0  0  0  0  0  0  0  0  0  0
  -52.1240   -0.8870   26.8990 C   0  0  0  0  0  0  0  0  0  0  0  0
  -52.6170   -0.2970   28.0190 C   0  0  0  0  0  0  0  0  0  0  0  0
  -53.1060   -1.0880   29.0240 C   0  0  0  0  0  0  0  0  0  0  0  0
  -51.5440   -0.0630   25.7720 C   0  0  0  0  0  0  0  0  0  0  0  0
  -51.8700    0.0570   24.4550 C   0  0  0  0  0  0  0  0  0  0  0  0
  -48.1940    2.8160   26.3510 C   0  0  0  0  0  0  0  0  0  0  0  0
  -53.5920   -1.1580   21.2570 C   0  0  0  0  0  0  0  0  0  0  0  0
  -52.6910   -0.6070   22.1360 C   0  0  0  0  0  0  0  0  0  0  0  0
  -52.9230   -0.5790   23.5210 C   0  0  0  0  0  0  0  0  0  0  0  0
  -54.1040   -1.1350   23.9400 C   0  0  0  0  0  0  0  0  0  0  0  0
  -54.9420   -1.6640   22.9990 C   0  0  0  0  0  0  0  0  0  0  0  0
  -50.8220    1.3240   17.7190 C   0  0  0  0  0  0  0  0  0  0  0  0
  -51.1650    0.1140   17.2150 C   0  0  0  0  0  0  0  0  0  0  0  0
  -52.0020   -0.7350   17.8700 C   0  0  0  0  0  0  0  0  0  0  0  0
  -52.5110   -0.3730   19.0920 C   0  0  0  0  0  0  0  0  0  0  0  0
  -51.3120    1.6950   18.9200 C   0  0  0  0  0  0  0  0  0  0  0  0
  -53.2740   -2.6800   17.3490 C   0  0  0  0  0  0  0  0  0  0  0  0
  -52.1780    0.8540   19.5980 C   0  0  0  0  0  0  0  0  0  0  0  0
  -50.4580    3.2310   20.7130 C   0  0  0  0  0  0  0  0  0  0  0  0
  -50.0700    4.6160   21.2120 C   0  0  0  0  0  0  0  0  0  0  0  0
  -48.6130    4.7710   21.6320 C   0  0  0  0  0  0  0  0  0  0  0  0
  -53.5390   -3.2180   29.8560 F   0  0  0  0  0  0  0  0  0  0  0  0
  -51.0170    0.8900   23.9930 N   0  0  0  0  0  0  0  0  0  0  0  0
  -50.5370    0.7030   26.0130 N   0  0  0  0  0  0  0  0  0  0  0  0
  -54.6610   -1.6840   21.7300 N   0  0  0  0  0  0  0  0  0  0  0  0
  -53.3920   -1.2110   19.8360 N   0  0  0  0  0  0  0  0  0  0  0  0
  -50.9290    3.0020   19.3840 N   0  0  0  0  0  0  0  0  0  0  0  0
  -52.2030   -1.8940   17.1570 O   0  0  0  0  0  0  0  0  0  0  0  0
  -50.3900    2.3200   21.4200 O   0  0  0  0  0  0  0  0  0  0  0  0
  -48.8380    2.4790   24.7170 S   0  0  0  0  0  0  0  0  0  0  0  0
  -51.6675   -2.6788   25.9744 H   0  0  0  0  0  0  0  0  0  0  0  0
  -52.5175   -4.0811   27.7187 H   0  0  0  0  0  0  0  0  0  0  0  0
  -52.6229    0.7309   28.1109 H   0  0  0  0  0  0  0  0  0  0  0  0
  -53.5064   -0.6575   29.8722 H   0  0  0  0  0  0  0  0  0  0  0  0
  -47.3829    3.5101   26.2785 H   0  0  0  0  0  0  0  0  0  0  0  0
  -47.8459    1.9054   26.7920 H   0  0  0  0  0  0  0  0  0  0  0  0
  -48.9679    3.2342   26.9601 H   0  0  0  0  0  0  0  0  0  0  0  0
  -51.8168   -0.2012   21.7671 H   0  0  0  0  0  0  0  0  0  0  0  0
  -54.3540   -1.1536   24.9411 H   0  0  0  0  0  0  0  0  0  0  0  0
  -55.8398   -2.0664   23.3104 H   0  0  0  0  0  0  0  0  0  0  0  0
  -50.1954    1.9523   17.1922 H   0  0  0  0  0  0  0  0  0  0  0  0
  -50.7778   -0.1735   16.3026 H   0  0  0  0  0  0  0  0  0  0  0  0
  -53.2223   -3.5207   16.6891 H   0  0  0  0  0  0  0  0  0  0  0  0
  -54.1655   -2.1233   17.1484 H   0  0  0  0  0  0  0  0  0  0  0  0
  -53.2879   -3.0225   18.3626 H   0  0  0  0  0  0  0  0  0  0  0  0
  -52.5787    1.1573   20.4993 H   0  0  0  0  0  0  0  0  0  0  0  0
  -50.6843    4.8473   22.0570 H   0  0  0  0  0  0  0  0  0  0  0  0
  -50.2124    5.2798   20.3849 H   0  0  0  0  0  0  0  0  0  0  0  0
  -48.4105    4.1264   22.4617 H   0  0  0  0  0  0  0  0  0  0  0  0
  -48.4298    5.7862   21.9161 H   0  0  0  0  0  0  0  0  0  0  0  0
  -47.9760    4.5092   20.8131 H   0  0  0  0  0  0  0  0  0  0  0  0
  -50.0979    0.8120   26.8874 H   0  0  0  0  0  0  0  0  0  0  0  0
  -53.9068   -1.8828   19.3332 H   0  0  0  0  0  0  0  0  0  0  0  0
  -50.9938    3.7644   18.7645 H   0  0  0  0  0  0  0  0  0  0  0  0
  1  7  1  0  0  0  0
  1 26  1  0  0  0  0
  2  5  2  0  0  0  0
  2  3  1  0  0  0  0
  2 35  1  0  0  0  0
  3  1  2  0  0  0  0
  3 36  1  0  0  0  0
  4 28  1  0  0  0  0
  5  6  1  0  0  0  0
  6  7  2  0  0  0  0
  6 37  1  0  0  0  0
  7 38  1  0  0  0  0
  8 28  1  0  0  0  0
  8  5  1  0  0  0  0
  9  8  2  0  0  0  0
 10 39  1  0  0  0  0
 10 40  1  0  0  0  0
 10 41  1  0  0  0  0
 11 29  2  0  0  0  0
 11 12  1  0  0  0  0
 12 13  2  0  0  0  0
 12 42  1  0  0  0  0
 13 14  1  0  0  0  0
 13  9  1  0  0  0  0
 14 43  1  0  0  0  0
 15 14  2  0  0  0  0
 15 44  1  0  0  0  0
 16 20  1  0  0  0  0
 16 45  1  0  0  0  0
 17 16  2  0  0  0  0
 17 18  1  0  0  0  0
 17 46  1  0  0  0  0
 18 19  2  0  0  0  0
 19 22  1  0  0  0  0
 19 30  1  0  0  0  0
 20 31  1  0  0  0  0
 20 22  2  0  0  0  0
 21 47  1  0  0  0  0
 21 48  1  0  0  0  0
 21 49  1  0  0  0  0
 22 50  1  0  0  0  0
 23 24  1  0  0  0  0
 23 33  2  0  0  0  0
 24 25  1  0  0  0  0
 24 51  1  0  0  0  0
 24 52  1  0  0  0  0
 25 53  1  0  0  0  0
 25 54  1  0  0  0  0
 25 55  1  0  0  0  0
 27  9  1  0  0  0  0
 27  4  2  0  0  0  0
 28 56  1  0  0  0  0
 29 15  1  0  0  0  0
 30 11  1  0  0  0  0
 30 57  1  0  0  0  0
 31 23  1  0  0  0  0
 31 58  1  0  0  0  0
 32 21  1  0  0  0  0
 32 18  1  0  0  0  0
 34  4  1  0  0  0  0
 34 10  1  0  0  0  0
M  END
>  <REMARK>
   1 CREATED WITH MDTraj 1.10.2, 2025-01-19

>  <MODEL>
       0

$$$$
