REMARK SMILES CCC(=O)Nc1ccc(OC)c(Nc2cc(-c3nc(SC)[nH]c3-c3ccc(F)cc3)ccn2)c1
REMARK SMILES IDX 13 1 14 3 16 4 15 5 31 6 32 7 33 8 17 9 23 10 22 11 19 12
REMARK SMILES IDX 18 13 24 15 27 16 29 17 26 18 30 19 25 20 28 21 20 22 21 23
REMARK SMILES IDX 12 24 9 25 34 26 8 27 6 28 7 29 10 30 11 31 5 32 3 33 4 35
REMARK SMILES IDX 2 36 1 37
REMARK H PARENT 13 2 22 14 5 34
ROOT
ATOM      1  N   UNL     1     -53.392  -1.211  19.836  1.00  0.00    -0.337 N 
ATOM      2  H   UNL     1     -53.907  -1.883  19.333  1.00  0.00     0.168 HD
ENDROOT
BRANCH   1   3
ATOM      3  C   UNL     1     -53.592  -1.158  21.257  1.00  0.00     0.131 A 
ATOM      4  C   UNL     1     -52.923  -0.579  23.521  1.00  0.00     0.008 A 
ATOM      5  C   UNL     1     -52.691  -0.607  22.136  1.00  0.00     0.057 A 
ATOM      6  C   UNL     1     -54.104  -1.135  23.940  1.00  0.00     0.030 A 
ATOM      7  C   UNL     1     -54.942  -1.664  22.999  1.00  0.00     0.114 A 
ATOM      8  N   UNL     1     -54.661  -1.684  21.730  1.00  0.00    -0.239 NA
BRANCH   4   9
ATOM      9  C   UNL     1     -51.870   0.057  24.455  1.00  0.00     0.098 A 
ATOM     10  C   UNL     1     -51.544  -0.063  25.772  1.00  0.00     0.074 A 
ATOM     11  N   UNL     1     -50.537   0.703  26.013  1.00  0.00    -0.332 N 
ATOM     12  C   UNL     1     -50.194   1.309  24.915  1.00  0.00     0.166 A 
ATOM     13  N   UNL     1     -51.017   0.890  23.993  1.00  0.00    -0.222 NA
ATOM     14  H   UNL     1     -50.098   0.812  26.887  1.00  0.00     0.169 HD
BRANCH  10  15
ATOM     15  C   UNL     1     -52.124  -0.887  26.899  1.00  0.00     0.000 A 
ATOM     16  C   UNL     1     -53.063  -2.449  28.902  1.00  0.00     0.123 A 
ATOM     17  C   UNL     1     -53.106  -1.088  29.024  1.00  0.00     0.040 A 
ATOM     18  C   UNL     1     -52.549  -3.053  27.803  1.00  0.00     0.040 A 
ATOM     19  C   UNL     1     -52.617  -0.297  28.019  1.00  0.00     0.013 A 
ATOM     20  C   UNL     1     -52.077  -2.246  26.817  1.00  0.00     0.013 A 
ATOM     21  F   UNL     1     -53.539  -3.218  29.856  1.00  0.00    -0.207 F 
ENDBRANCH  10  15
BRANCH  12  22
ATOM     22  S   UNL     1     -48.838   2.479  24.717  1.00  0.00    -0.092 SA
ATOM     23  C   UNL     1     -48.194   2.816  26.351  1.00  0.00     0.094 C 
ENDBRANCH  12  22
ENDBRANCH   4   9
ENDBRANCH   1   3
BRANCH   1  24
ATOM     24  C   UNL     1     -52.511  -0.373  19.092  1.00  0.00     0.084 A 
ATOM     25  C   UNL     1     -52.002  -0.735  17.870  1.00  0.00     0.142 A 
ATOM     26  C   UNL     1     -52.178   0.854  19.598  1.00  0.00     0.056 A 
ATOM     27  C   UNL     1     -51.165   0.114  17.215  1.00  0.00     0.051 A 
ATOM     28  C   UNL     1     -51.312   1.695  18.920  1.00  0.00     0.043 A 
ATOM     29  C   UNL     1     -50.822   1.324  17.719  1.00  0.00     0.030 A 
BRANCH  25  30
ATOM     30  O   UNL     1     -52.203  -1.894  17.157  1.00  0.00    -0.495 OA
ATOM     31  C   UNL     1     -53.274  -2.680  17.349  1.00  0.00     0.278 C 
ENDBRANCH  25  30
BRANCH  28  32
ATOM     32  N   UNL     1     -50.929   3.002  19.384  1.00  0.00    -0.326 N 
ATOM     33  C   UNL     1     -50.458   3.231  20.713  1.00  0.00     0.224 C 
ATOM     34  H   UNL     1     -50.994   3.764  18.765  1.00  0.00     0.169 HD
ATOM     35  O   UNL     1     -50.390   2.320  21.420  1.00  0.00    -0.275 OA
BRANCH  33  36
ATOM     36  C   UNL     1     -50.070   4.616  21.212  1.00  0.00     0.097 C 
ATOM     37  C   UNL     1     -48.613   4.771  21.632  1.00  0.00     0.014 C 
ENDBRANCH  33  36
ENDBRANCH  28  32
ENDBRANCH   1  24
TORSDOF 8
