MODEL 1
REMARK VINA RESULT:    -9.264      0.000      0.000
REMARK INTER + INTRA:         -14.573
REMARK INTER:                 -13.596
REMARK INTRA:                  -0.977
REMARK UNBOUND:                -0.977
REMARK SMILES CCC(=O)Nc1ccc(OC)c(Nc2cc(-c3nc(SC)[nH]c3-c3ccc(F)cc3)ccn2)c1
REMARK SMILES IDX 13 1 14 3 16 4 15 5 31 6 32 7 33 8 17 9 23 10 22 11 19 12
REMARK SMILES IDX 18 13 24 15 27 16 29 17 26 18 30 19 25 20 28 21 20 22 21 23
REMARK SMILES IDX 12 24 9 25 34 26 8 27 6 28 7 29 10 30 11 31 5 32 3 33 4 35
REMARK SMILES IDX 2 36 1 37
REMARK H PARENT 13 2 22 14 5 34
ROOT
ATOM      1  N   UNL     1     -53.502  -0.696  19.667  1.00  0.00    -0.337 N 
ATOM      2  H   UNL     1     -54.330  -0.720  19.134  1.00  0.00     0.168 HD
ENDROOT
BRANCH   1   3
ATOM      3  C   UNL     1     -53.633  -0.816  21.092  1.00  0.00     0.131 A 
ATOM      4  C   UNL     1     -52.911  -0.412  23.377  1.00  0.00     0.008 A 
ATOM      5  C   UNL     1     -52.749  -0.268  21.990  1.00  0.00     0.057 A 
ATOM      6  C   UNL     1     -54.007  -1.132  23.779  1.00  0.00     0.030 A 
ATOM      7  C   UNL     1     -54.834  -1.644  22.819  1.00  0.00     0.114 A 
ATOM      8  N   UNL     1     -54.617  -1.500  21.546  1.00  0.00    -0.239 NA
BRANCH   4   9
ATOM      9  C   UNL     1     -51.882   0.230  24.333  1.00  0.00     0.098 A 
ATOM     10  C   UNL     1     -51.560   0.087  25.649  1.00  0.00     0.074 A 
ATOM     11  N   UNL     1     -50.576   0.875  25.915  1.00  0.00    -0.332 N 
ATOM     12  C   UNL     1     -50.244   1.517  24.834  1.00  0.00     0.166 A 
ATOM     13  N   UNL     1     -51.050   1.098  23.897  1.00  0.00    -0.222 NA
ATOM     14  H   UNL     1     -50.145   0.974  26.794  1.00  0.00     0.169 HD
BRANCH  10  15
ATOM     15  C   UNL     1     -52.123  -0.781  26.752  1.00  0.00     0.000 A 
ATOM     16  C   UNL     1     -53.020  -2.407  28.723  1.00  0.00     0.123 A 
ATOM     17  C   UNL     1     -53.250  -1.061  28.794  1.00  0.00     0.040 A 
ATOM     18  C   UNL     1     -52.338  -2.962  27.691  1.00  0.00     0.040 A 
ATOM     19  C   UNL     1     -52.783  -0.236  27.806  1.00  0.00     0.013 A 
ATOM     20  C   UNL     1     -51.892  -2.123  26.721  1.00  0.00     0.013 A 
ATOM     21  F   UNL     1     -53.472  -3.210  29.660  1.00  0.00    -0.207 F 
ENDBRANCH  10  15
BRANCH  12  22
ATOM     22  S   UNL     1     -48.921   2.729  24.674  1.00  0.00    -0.092 SA
ATOM     23  C   UNL     1     -48.180   2.913  26.291  1.00  0.00     0.094 C 
ENDBRANCH  12  22
ENDBRANCH   4   9
ENDBRANCH   1   3
BRANCH   1  24
ATOM     24  C   UNL     1     -52.274  -0.547  18.958  1.00  0.00     0.084 A 
ATOM     25  C   UNL     1     -52.058  -1.110  17.725  1.00  0.00     0.142 A 
ATOM     26  C   UNL     1     -51.277   0.210  19.511  1.00  0.00     0.056 A 
ATOM     27  C   UNL     1     -50.861  -0.927  17.105  1.00  0.00     0.051 A 
ATOM     28  C   UNL     1     -50.061   0.370  18.868  1.00  0.00     0.043 A 
ATOM     29  C   UNL     1     -49.867  -0.189  17.656  1.00  0.00     0.030 A 
BRANCH  25  30
ATOM     30  O   UNL     1     -52.903  -1.887  16.968  1.00  0.00    -0.495 OA
ATOM     31  C   UNL     1     -52.715  -3.206  16.806  1.00  0.00     0.278 C 
ENDBRANCH  25  30
BRANCH  28  32
ATOM     32  N   UNL     1     -48.975   1.161  19.382  1.00  0.00    -0.326 N 
ATOM     33  C   UNL     1     -48.247   0.787  20.553  1.00  0.00     0.224 C 
ATOM     34  H   UNL     1     -48.725   1.988  18.912  1.00  0.00     0.169 HD
ATOM     35  O   UNL     1     -48.559  -0.189  21.087  1.00  0.00    -0.275 OA
BRANCH  33  36
ATOM     36  C   UNL     1     -47.110   1.632  21.110  1.00  0.00     0.097 C 
ATOM     37  C   UNL     1     -46.458   1.091  22.377  1.00  0.00     0.014 C 
ENDBRANCH  33  36
ENDBRANCH  28  32
ENDBRANCH   1  24
TORSDOF 8
ENDMDL
MODEL 2
REMARK VINA RESULT:    -9.037      1.723      1.870
REMARK INTER + INTRA:         -14.241
REMARK INTER:                 -13.120
REMARK INTRA:                  -1.121
REMARK UNBOUND:                -0.977
REMARK SMILES CCC(=O)Nc1ccc(OC)c(Nc2cc(-c3nc(SC)[nH]c3-c3ccc(F)cc3)ccn2)c1
REMARK SMILES IDX 13 1 14 3 16 4 15 5 31 6 32 7 33 8 17 9 23 10 22 11 19 12
REMARK SMILES IDX 18 13 24 15 27 16 29 17 26 18 30 19 25 20 28 21 20 22 21 23
REMARK SMILES IDX 12 24 9 25 34 26 8 27 6 28 7 29 10 30 11 31 5 32 3 33 4 35
REMARK SMILES IDX 2 36 1 37
REMARK H PARENT 13 2 22 14 5 34
ROOT
ATOM      1  N   UNL     1     -53.761  -0.536  19.840  1.00  0.00    -0.337 N 
ATOM      2  H   UNL     1     -54.596  -0.653  19.332  1.00  0.00     0.168 HD
ENDROOT
BRANCH   1   3
ATOM      3  C   UNL     1     -53.823  -0.728  21.262  1.00  0.00     0.131 A 
ATOM      4  C   UNL     1     -52.992  -0.440  23.528  1.00  0.00     0.008 A 
ATOM      5  C   UNL     1     -52.896  -0.226  22.143  1.00  0.00     0.057 A 
ATOM      6  C   UNL     1     -54.068  -1.181  23.945  1.00  0.00     0.030 A 
ATOM      7  C   UNL     1     -54.941  -1.644  23.001  1.00  0.00     0.114 A 
ATOM      8  N   UNL     1     -54.786  -1.435  21.728  1.00  0.00    -0.239 NA
BRANCH   4   9
ATOM      9  C   UNL     1     -51.916   0.153  24.465  1.00  0.00     0.098 A 
ATOM     10  C   UNL     1     -51.588   0.007  25.778  1.00  0.00     0.074 A 
ATOM     11  N   UNL     1     -50.558   0.740  26.024  1.00  0.00    -0.332 N 
ATOM     12  C   UNL     1     -50.202   1.350  24.932  1.00  0.00     0.166 A 
ATOM     13  N   UNL     1     -51.041   0.966  24.009  1.00  0.00    -0.222 NA
ATOM     14  H   UNL     1     -50.112   0.825  26.897  1.00  0.00     0.169 HD
BRANCH  10  15
ATOM     15  C   UNL     1     -52.186  -0.814  26.898  1.00  0.00     0.000 A 
ATOM     16  C   UNL     1     -53.147  -2.358  28.904  1.00  0.00     0.123 A 
ATOM     17  C   UNL     1     -53.370  -1.009  28.918  1.00  0.00     0.040 A 
ATOM     18  C   UNL     1     -52.443  -2.957  27.913  1.00  0.00     0.040 A 
ATOM     19  C   UNL     1     -52.871  -0.225  27.913  1.00  0.00     0.013 A 
ATOM     20  C   UNL     1     -51.965  -2.158  26.924  1.00  0.00     0.013 A 
ATOM     21  F   UNL     1     -53.631  -3.122  29.859  1.00  0.00    -0.207 F 
ENDBRANCH  10  15
BRANCH  12  22
ATOM     22  S   UNL     1     -48.814   2.482  24.742  1.00  0.00    -0.092 SA
ATOM     23  C   UNL     1     -48.207   2.848  26.384  1.00  0.00     0.094 C 
ENDBRANCH  12  22
ENDBRANCH   4   9
ENDBRANCH   1   3
BRANCH   1  24
ATOM     24  C   UNL     1     -52.591  -0.191  19.102  1.00  0.00     0.084 A 
ATOM     25  C   UNL     1     -52.138  -0.938  18.043  1.00  0.00     0.142 A 
ATOM     26  C   UNL     1     -51.904   0.943  19.440  1.00  0.00     0.056 A 
ATOM     27  C   UNL     1     -51.013  -0.551  17.384  1.00  0.00     0.051 A 
ATOM     28  C   UNL     1     -50.753   1.309  18.764  1.00  0.00     0.043 A 
ATOM     29  C   UNL     1     -50.322   0.564  17.724  1.00  0.00     0.030 A 
BRANCH  25  30
ATOM     30  O   UNL     1     -52.661  -2.093  17.511  1.00  0.00    -0.495 OA
ATOM     31  C   UNL     1     -52.380  -2.502  16.264  1.00  0.00     0.278 C 
ENDBRANCH  25  30
BRANCH  28  32
ATOM     32  N   UNL     1     -49.988   2.493  19.055  1.00  0.00    -0.326 N 
ATOM     33  C   UNL     1     -50.456   3.801  18.726  1.00  0.00     0.224 C 
ATOM     34  H   UNL     1     -49.114   2.397  19.495  1.00  0.00     0.169 HD
ATOM     35  O   UNL     1     -51.487   3.887  18.211  1.00  0.00    -0.275 OA
BRANCH  33  36
ATOM     36  C   UNL     1     -49.641   5.054  19.015  1.00  0.00     0.097 C 
ATOM     37  C   UNL     1     -49.875   5.679  20.386  1.00  0.00     0.014 C 
ENDBRANCH  33  36
ENDBRANCH  28  32
ENDBRANCH   1  24
TORSDOF 8
ENDMDL
MODEL 3
REMARK VINA RESULT:    -8.600      3.811      7.622
REMARK INTER + INTRA:         -13.600
REMARK INTER:                 -11.653
REMARK INTRA:                  -1.947
REMARK UNBOUND:                -0.977
REMARK SMILES CCC(=O)Nc1ccc(OC)c(Nc2cc(-c3nc(SC)[nH]c3-c3ccc(F)cc3)ccn2)c1
REMARK SMILES IDX 13 1 14 3 16 4 15 5 31 6 32 7 33 8 17 9 23 10 22 11 19 12
REMARK SMILES IDX 18 13 24 15 27 16 29 17 26 18 30 19 25 20 28 21 20 22 21 23
REMARK SMILES IDX 12 24 9 25 34 26 8 27 6 28 7 29 10 30 11 31 5 32 3 33 4 35
REMARK SMILES IDX 2 36 1 37
REMARK H PARENT 13 2 22 14 5 34
ROOT
ATOM      1  N   UNL     1     -52.548  -0.370  25.626  1.00  0.00    -0.337 N 
ATOM      2  H   UNL     1     -52.117  -1.113  26.106  1.00  0.00     0.168 HD
ENDROOT
BRANCH   1   3
ATOM      3  C   UNL     1     -53.153  -0.669  24.358  1.00  0.00     0.131 A 
ATOM      4  C   UNL     1     -53.156  -0.784  21.930  1.00  0.00     0.008 A 
ATOM      5  C   UNL     1     -52.527  -0.482  23.149  1.00  0.00     0.057 A 
ATOM      6  C   UNL     1     -54.431  -1.278  22.022  1.00  0.00     0.030 A 
ATOM      7  C   UNL     1     -54.980  -1.430  23.264  1.00  0.00     0.114 A 
ATOM      8  N   UNL     1     -54.357  -1.108  24.359  1.00  0.00    -0.239 NA
BRANCH   4   9
ATOM      9  C   UNL     1     -52.396  -0.552  20.605  1.00  0.00     0.098 A 
ATOM     10  C   UNL     1     -51.217   0.034  20.254  1.00  0.00     0.074 A 
ATOM     11  N   UNL     1     -51.066  -0.089  18.981  1.00  0.00    -0.332 N 
ATOM     12  C   UNL     1     -52.088  -0.729  18.493  1.00  0.00     0.166 A 
ATOM     13  N   UNL     1     -52.868  -0.998  19.504  1.00  0.00    -0.222 NA
ATOM     14  H   UNL     1     -50.301   0.247  18.461  1.00  0.00     0.169 HD
BRANCH  10  15
ATOM     15  C   UNL     1     -50.147   0.741  21.054  1.00  0.00     0.000 A 
ATOM     16  C   UNL     1     -48.322   2.037  22.577  1.00  0.00     0.123 A 
ATOM     17  C   UNL     1     -47.982   0.867  21.958  1.00  0.00     0.040 A 
ATOM     18  C   UNL     1     -49.561   2.573  22.463  1.00  0.00     0.040 A 
ATOM     19  C   UNL     1     -48.909   0.202  21.200  1.00  0.00     0.013 A 
ATOM     20  C   UNL     1     -50.460   1.898  21.700  1.00  0.00     0.013 A 
ATOM     21  F   UNL     1     -47.437   2.689  23.298  1.00  0.00    -0.207 F 
ENDBRANCH  10  15
BRANCH  12  22
ATOM     22  S   UNL     1     -52.351  -1.167  16.765  1.00  0.00    -0.092 SA
ATOM     23  C   UNL     1     -52.741  -2.912  16.720  1.00  0.00     0.094 C 
ENDBRANCH  12  22
ENDBRANCH   4   9
ENDBRANCH   1   3
BRANCH   1  24
ATOM     24  C   UNL     1     -52.520   0.913  26.247  1.00  0.00     0.084 A 
ATOM     25  C   UNL     1     -53.118   1.162  27.457  1.00  0.00     0.142 A 
ATOM     26  C   UNL     1     -51.847   1.933  25.631  1.00  0.00     0.056 A 
ATOM     27  C   UNL     1     -53.053   2.411  27.991  1.00  0.00     0.051 A 
ATOM     28  C   UNL     1     -51.807   3.200  26.187  1.00  0.00     0.043 A 
ATOM     29  C   UNL     1     -52.400   3.428  27.378  1.00  0.00     0.030 A 
BRANCH  25  30
ATOM     30  O   UNL     1     -53.828   0.305  28.265  1.00  0.00    -0.495 OA
ATOM     31  C   UNL     1     -53.231  -0.629  29.022  1.00  0.00     0.278 C 
ENDBRANCH  25  30
BRANCH  28  32
ATOM     32  N   UNL     1     -51.109   4.315  25.604  1.00  0.00    -0.326 N 
ATOM     33  C   UNL     1     -51.604   5.009  24.458  1.00  0.00     0.224 C 
ATOM     34  H   UNL     1     -50.262   4.610  26.009  1.00  0.00     0.169 HD
ATOM     35  O   UNL     1     -52.601   4.645  24.002  1.00  0.00    -0.275 OA
BRANCH  33  36
ATOM     36  C   UNL     1     -50.858   6.177  23.828  1.00  0.00     0.097 C 
ATOM     37  C   UNL     1     -50.775   6.150  22.306  1.00  0.00     0.014 C 
ENDBRANCH  33  36
ENDBRANCH  28  32
ENDBRANCH   1  24
TORSDOF 8
ENDMDL
MODEL 4
REMARK VINA RESULT:    -8.547      3.606      7.675
REMARK INTER + INTRA:         -13.522
REMARK INTER:                 -11.448
REMARK INTRA:                  -2.074
REMARK UNBOUND:                -0.977
REMARK SMILES CCC(=O)Nc1ccc(OC)c(Nc2cc(-c3nc(SC)[nH]c3-c3ccc(F)cc3)ccn2)c1
REMARK SMILES IDX 13 1 14 3 16 4 15 5 31 6 32 7 33 8 17 9 23 10 22 11 19 12
REMARK SMILES IDX 18 13 24 15 27 16 29 17 26 18 30 19 25 20 28 21 20 22 21 23
REMARK SMILES IDX 12 24 9 25 34 26 8 27 6 28 7 29 10 30 11 31 5 32 3 33 4 35
REMARK SMILES IDX 2 36 1 37
REMARK H PARENT 13 2 22 14 5 34
ROOT
ATOM      1  N   UNL     1     -52.152   4.664  22.037  1.00  0.00    -0.337 N 
ATOM      2  H   UNL     1     -52.823   5.324  21.749  1.00  0.00     0.168 HD
ENDROOT
BRANCH   1   3
ATOM      3  C   UNL     1     -51.499   3.899  21.012  1.00  0.00     0.131 A 
ATOM      4  C   UNL     1     -51.276   1.962  19.561  1.00  0.00     0.008 A 
ATOM      5  C   UNL     1     -51.947   2.680  20.564  1.00  0.00     0.057 A 
ATOM      6  C   UNL     1     -50.147   2.553  19.057  1.00  0.00     0.030 A 
ATOM      7  C   UNL     1     -49.769   3.766  19.562  1.00  0.00     0.114 A 
ATOM      8  N   UNL     1     -50.418   4.372  20.510  1.00  0.00    -0.239 NA
BRANCH   4   9
ATOM      9  C   UNL     1     -51.834   0.597  19.101  1.00  0.00     0.098 A 
ATOM     10  C   UNL     1     -52.502  -0.429  19.699  1.00  0.00     0.074 A 
ATOM     11  N   UNL     1     -52.751  -1.326  18.809  1.00  0.00    -0.332 N 
ATOM     12  C   UNL     1     -52.280  -0.928  17.664  1.00  0.00     0.166 A 
ATOM     13  N   UNL     1     -51.739   0.240  17.877  1.00  0.00    -0.222 NA
ATOM     14  H   UNL     1     -53.221  -2.175  18.970  1.00  0.00     0.169 HD
BRANCH  10  15
ATOM     15  C   UNL     1     -52.963  -0.659  21.120  1.00  0.00     0.000 A 
ATOM     16  C   UNL     1     -53.718  -0.965  23.703  1.00  0.00     0.123 A 
ATOM     17  C   UNL     1     -54.624  -1.173  22.701  1.00  0.00     0.040 A 
ATOM     18  C   UNL     1     -52.440  -0.594  23.447  1.00  0.00     0.040 A 
ATOM     19  C   UNL     1     -54.248  -1.003  21.395  1.00  0.00     0.013 A 
ATOM     20  C   UNL     1     -52.090  -0.439  22.143  1.00  0.00     0.013 A 
ATOM     21  F   UNL     1     -54.065  -1.135  24.960  1.00  0.00    -0.207 F 
ENDBRANCH  10  15
BRANCH  12  22
ATOM     22  S   UNL     1     -52.379  -1.817  16.100  1.00  0.00    -0.092 SA
ATOM     23  C   UNL     1     -52.757  -3.521  16.488  1.00  0.00     0.094 C 
ENDBRANCH  12  22
ENDBRANCH   4   9
ENDBRANCH   1   3
BRANCH   1  24
ATOM     24  C   UNL     1     -51.910   4.547  23.437  1.00  0.00     0.084 A 
ATOM     25  C   UNL     1     -50.899   5.225  24.072  1.00  0.00     0.142 A 
ATOM     26  C   UNL     1     -52.733   3.753  24.188  1.00  0.00     0.056 A 
ATOM     27  C   UNL     1     -50.725   5.066  25.412  1.00  0.00     0.051 A 
ATOM     28  C   UNL     1     -52.527   3.595  25.548  1.00  0.00     0.043 A 
ATOM     29  C   UNL     1     -51.529   4.269  26.157  1.00  0.00     0.030 A 
BRANCH  25  30
ATOM     30  O   UNL     1     -49.966   6.084  23.541  1.00  0.00    -0.495 OA
ATOM     31  C   UNL     1     -48.671   5.755  23.422  1.00  0.00     0.278 C 
ENDBRANCH  25  30
BRANCH  28  32
ATOM     32  N   UNL     1     -53.358   2.788  26.401  1.00  0.00    -0.326 N 
ATOM     33  C   UNL     1     -52.975   1.478  26.821  1.00  0.00     0.224 C 
ATOM     34  H   UNL     1     -54.221   3.151  26.705  1.00  0.00     0.169 HD
ATOM     35  O   UNL     1     -51.957   1.075  26.451  1.00  0.00    -0.275 OA
BRANCH  33  36
ATOM     36  C   UNL     1     -53.861   0.615  27.709  1.00  0.00     0.097 C 
ATOM     37  C   UNL     1     -53.126  -0.421  28.551  1.00  0.00     0.014 C 
ENDBRANCH  33  36
ENDBRANCH  28  32
ENDBRANCH   1  24
TORSDOF 8
ENDMDL
MODEL 5
REMARK VINA RESULT:    -8.518      3.066      5.682
REMARK INTER + INTRA:         -13.479
REMARK INTER:                 -11.298
REMARK INTRA:                  -2.182
REMARK UNBOUND:                -0.977
REMARK SMILES CCC(=O)Nc1ccc(OC)c(Nc2cc(-c3nc(SC)[nH]c3-c3ccc(F)cc3)ccn2)c1
REMARK SMILES IDX 13 1 14 3 16 4 15 5 31 6 32 7 33 8 17 9 23 10 22 11 19 12
REMARK SMILES IDX 18 13 24 15 27 16 29 17 26 18 30 19 25 20 28 21 20 22 21 23
REMARK SMILES IDX 12 24 9 25 34 26 8 27 6 28 7 29 10 30 11 31 5 32 3 33 4 35
REMARK SMILES IDX 2 36 1 37
REMARK H PARENT 13 2 22 14 5 34
ROOT
ATOM      1  N   UNL     1     -51.498   3.900  21.297  1.00  0.00    -0.337 N 
ATOM      2  H   UNL     1     -51.745   4.699  20.778  1.00  0.00     0.168 HD
ENDROOT
BRANCH   1   3
ATOM      3  C   UNL     1     -51.895   3.862  22.676  1.00  0.00     0.131 A 
ATOM      4  C   UNL     1     -52.582   2.713  24.705  1.00  0.00     0.008 A 
ATOM      5  C   UNL     1     -52.193   2.706  23.355  1.00  0.00     0.057 A 
ATOM      6  C   UNL     1     -52.646   3.946  25.301  1.00  0.00     0.030 A 
ATOM      7  C   UNL     1     -52.337   5.046  24.551  1.00  0.00     0.114 A 
ATOM      8  N   UNL     1     -52.007   4.979  23.296  1.00  0.00    -0.239 NA
BRANCH   4   9
ATOM      9  C   UNL     1     -52.901   1.377  25.411  1.00  0.00     0.098 A 
ATOM     10  C   UNL     1     -53.115   0.094  25.006  1.00  0.00     0.074 A 
ATOM     11  N   UNL     1     -53.313  -0.634  26.050  1.00  0.00    -0.332 N 
ATOM     12  C   UNL     1     -53.233   0.115  27.110  1.00  0.00     0.166 A 
ATOM     13  N   UNL     1     -52.977   1.323  26.686  1.00  0.00    -0.222 NA
ATOM     14  H   UNL     1     -53.495  -1.601  26.047  1.00  0.00     0.169 HD
BRANCH  10  15
ATOM     15  C   UNL     1     -53.149  -0.557  23.642  1.00  0.00     0.000 A 
ATOM     16  C   UNL     1     -53.321  -1.656  21.173  1.00  0.00     0.123 A 
ATOM     17  C   UNL     1     -52.103  -1.279  21.666  1.00  0.00     0.040 A 
ATOM     18  C   UNL     1     -54.463  -1.487  21.882  1.00  0.00     0.040 A 
ATOM     19  C   UNL     1     -52.016  -0.709  22.908  1.00  0.00     0.013 A 
ATOM     20  C   UNL     1     -54.350  -0.925  23.114  1.00  0.00     0.013 A 
ATOM     21  F   UNL     1     -53.415  -2.215  19.987  1.00  0.00    -0.207 F 
ENDBRANCH  10  15
BRANCH  12  22
ATOM     22  S   UNL     1     -53.423  -0.423  28.819  1.00  0.00    -0.092 SA
ATOM     23  C   UNL     1     -52.685  -2.048  28.941  1.00  0.00     0.094 C 
ENDBRANCH  12  22
ENDBRANCH   4   9
ENDBRANCH   1   3
BRANCH   1  24
ATOM     24  C   UNL     1     -50.776   2.877  20.615  1.00  0.00     0.084 A 
ATOM     25  C   UNL     1     -49.414   2.743  20.712  1.00  0.00     0.142 A 
ATOM     26  C   UNL     1     -51.466   1.973  19.854  1.00  0.00     0.056 A 
ATOM     27  C   UNL     1     -48.789   1.743  20.033  1.00  0.00     0.051 A 
ATOM     28  C   UNL     1     -50.807   0.973  19.160  1.00  0.00     0.043 A 
ATOM     29  C   UNL     1     -49.467   0.854  19.268  1.00  0.00     0.030 A 
BRANCH  25  30
ATOM     30  O   UNL     1     -48.517   3.508  21.421  1.00  0.00    -0.495 OA
ATOM     31  C   UNL     1     -47.986   3.102  22.585  1.00  0.00     0.278 C 
ENDBRANCH  25  30
BRANCH  28  32
ATOM     32  N   UNL     1     -51.467  -0.019  18.353  1.00  0.00    -0.326 N 
ATOM     33  C   UNL     1     -51.554   0.090  16.931  1.00  0.00     0.224 C 
ATOM     34  H   UNL     1     -51.873  -0.798  18.796  1.00  0.00     0.169 HD
ATOM     35  O   UNL     1     -51.068   1.013  16.436  1.00  0.00    -0.275 OA
BRANCH  33  36
ATOM     36  C   UNL     1     -52.268  -0.949  16.078  1.00  0.00     0.097 C 
ATOM     37  C   UNL     1     -52.484  -2.302  16.745  1.00  0.00     0.014 C 
ENDBRANCH  33  36
ENDBRANCH  28  32
ENDBRANCH   1  24
TORSDOF 8
ENDMDL
MODEL 6
REMARK VINA RESULT:    -8.372      4.095      6.524
REMARK INTER + INTRA:         -13.266
REMARK INTER:                 -11.063
REMARK INTRA:                  -2.203
REMARK UNBOUND:                -0.977
REMARK SMILES CCC(=O)Nc1ccc(OC)c(Nc2cc(-c3nc(SC)[nH]c3-c3ccc(F)cc3)ccn2)c1
REMARK SMILES IDX 13 1 14 3 16 4 15 5 31 6 32 7 33 8 17 9 23 10 22 11 19 12
REMARK SMILES IDX 18 13 24 15 27 16 29 17 26 18 30 19 25 20 28 21 20 22 21 23
REMARK SMILES IDX 12 24 9 25 34 26 8 27 6 28 7 29 10 30 11 31 5 32 3 33 4 35
REMARK SMILES IDX 2 36 1 37
REMARK H PARENT 13 2 22 14 5 34
ROOT
ATOM      1  N   UNL     1     -52.464   5.102  22.462  1.00  0.00    -0.337 N 
ATOM      2  H   UNL     1     -53.289   5.581  22.217  1.00  0.00     0.168 HD
ENDROOT
BRANCH   1   3
ATOM      3  C   UNL     1     -52.443   4.437  23.735  1.00  0.00     0.131 A 
ATOM      4  C   UNL     1     -52.406   2.460  25.148  1.00  0.00     0.008 A 
ATOM      5  C   UNL     1     -52.422   3.071  23.884  1.00  0.00     0.057 A 
ATOM      6  C   UNL     1     -52.413   3.311  26.223  1.00  0.00     0.030 A 
ATOM      7  C   UNL     1     -52.438   4.656  25.985  1.00  0.00     0.114 A 
ATOM      8  N   UNL     1     -52.477   5.165  24.790  1.00  0.00    -0.239 NA
BRANCH   4   9
ATOM      9  C   UNL     1     -52.380   0.919  25.246  1.00  0.00     0.098 A 
ATOM     10  C   UNL     1     -52.294  -0.108  24.355  1.00  0.00     0.074 A 
ATOM     11  N   UNL     1     -52.286  -1.216  25.012  1.00  0.00    -0.332 N 
ATOM     12  C   UNL     1     -52.359  -0.955  26.283  1.00  0.00     0.166 A 
ATOM     13  N   UNL     1     -52.408   0.345  26.388  1.00  0.00    -0.222 NA
ATOM     14  H   UNL     1     -52.234  -2.115  24.615  1.00  0.00     0.169 HD
BRANCH  10  15
ATOM     15  C   UNL     1     -52.208  -0.149  22.847  1.00  0.00     0.000 A 
ATOM     16  C   UNL     1     -52.169  -0.156  20.139  1.00  0.00     0.123 A 
ATOM     17  C   UNL     1     -51.008   0.038  20.835  1.00  0.00     0.040 A 
ATOM     18  C   UNL     1     -53.357  -0.337  20.765  1.00  0.00     0.040 A 
ATOM     19  C   UNL     1     -51.029   0.057  22.204  1.00  0.00     0.013 A 
ATOM     20  C   UNL     1     -53.350  -0.320  22.123  1.00  0.00     0.013 A 
ATOM     21  F   UNL     1     -52.159  -0.188  18.825  1.00  0.00    -0.207 F 
ENDBRANCH  10  15
BRANCH  12  22
ATOM     22  S   UNL     1     -52.371  -2.159  27.624  1.00  0.00    -0.092 SA
ATOM     23  C   UNL     1     -53.079  -1.347  29.051  1.00  0.00     0.094 C 
ENDBRANCH  12  22
ENDBRANCH   4   9
ENDBRANCH   1   3
BRANCH   1  24
ATOM     24  C   UNL     1     -51.391   5.127  21.523  1.00  0.00     0.084 A 
ATOM     25  C   UNL     1     -50.430   6.106  21.525  1.00  0.00     0.142 A 
ATOM     26  C   UNL     1     -51.296   4.123  20.599  1.00  0.00     0.056 A 
ATOM     27  C   UNL     1     -49.434   6.069  20.599  1.00  0.00     0.051 A 
ATOM     28  C   UNL     1     -50.282   4.114  19.656  1.00  0.00     0.043 A 
ATOM     29  C   UNL     1     -49.344   5.084  19.673  1.00  0.00     0.030 A 
BRANCH  25  30
ATOM     30  O   UNL     1     -50.304   7.195  22.357  1.00  0.00    -0.495 OA
ATOM     31  C   UNL     1     -49.612   7.146  23.506  1.00  0.00     0.278 C 
ENDBRANCH  25  30
BRANCH  28  32
ATOM     32  N   UNL     1     -50.112   3.086  18.664  1.00  0.00    -0.326 N 
ATOM     33  C   UNL     1     -50.744   3.149  17.385  1.00  0.00     0.224 C 
ATOM     34  H   UNL     1     -49.542   2.312  18.875  1.00  0.00     0.169 HD
ATOM     35  O   UNL     1     -51.408   4.067  17.161  1.00  0.00    -0.275 OA
BRANCH  33  36
ATOM     36  C   UNL     1     -50.580   2.053  16.341  1.00  0.00     0.097 C 
ATOM     37  C   UNL     1     -49.818   0.818  16.809  1.00  0.00     0.014 C 
ENDBRANCH  33  36
ENDBRANCH  28  32
ENDBRANCH   1  24
TORSDOF 8
ENDMDL
MODEL 7
REMARK VINA RESULT:    -7.865      3.704      7.503
REMARK INTER + INTRA:         -12.521
REMARK INTER:                 -10.537
REMARK INTRA:                  -1.983
REMARK UNBOUND:                -0.977
REMARK SMILES CCC(=O)Nc1ccc(OC)c(Nc2cc(-c3nc(SC)[nH]c3-c3ccc(F)cc3)ccn2)c1
REMARK SMILES IDX 13 1 14 3 16 4 15 5 31 6 32 7 33 8 17 9 23 10 22 11 19 12
REMARK SMILES IDX 18 13 24 15 27 16 29 17 26 18 30 19 25 20 28 21 20 22 21 23
REMARK SMILES IDX 12 24 9 25 34 26 8 27 6 28 7 29 10 30 11 31 5 32 3 33 4 35
REMARK SMILES IDX 2 36 1 37
REMARK H PARENT 13 2 22 14 5 34
ROOT
ATOM      1  N   UNL     1     -52.318  -0.558  23.935  1.00  0.00    -0.337 N 
ATOM      2  H   UNL     1     -51.961  -1.341  24.414  1.00  0.00     0.168 HD
ENDROOT
BRANCH   1   3
ATOM      3  C   UNL     1     -52.538  -0.694  22.523  1.00  0.00     0.131 A 
ATOM      4  C   UNL     1     -51.843  -0.562  20.197  1.00  0.00     0.008 A 
ATOM      5  C   UNL     1     -51.586  -0.419  21.571  1.00  0.00     0.057 A 
ATOM      6  C   UNL     1     -53.102  -0.993  19.867  1.00  0.00     0.030 A 
ATOM      7  C   UNL     1     -53.988  -1.241  20.877  1.00  0.00     0.114 A 
ATOM      8  N   UNL     1     -53.701  -1.066  22.132  1.00  0.00    -0.239 NA
BRANCH   4   9
ATOM      9  C   UNL     1     -50.729  -0.237  19.178  1.00  0.00     0.098 A 
ATOM     10  C   UNL     1     -49.538   0.422  19.221  1.00  0.00     0.074 A 
ATOM     11  N   UNL     1     -48.995   0.358  18.055  1.00  0.00    -0.332 N 
ATOM     12  C   UNL     1     -49.776  -0.314  17.261  1.00  0.00     0.166 A 
ATOM     13  N   UNL     1     -50.811  -0.663  17.975  1.00  0.00    -0.222 NA
ATOM     14  H   UNL     1     -48.130   0.754  17.805  1.00  0.00     0.169 HD
BRANCH  10  15
ATOM     15  C   UNL     1     -48.811   1.151  20.329  1.00  0.00     0.000 A 
ATOM     16  C   UNL     1     -47.626   2.505  22.353  1.00  0.00     0.123 A 
ATOM     17  C   UNL     1     -47.201   1.245  22.037  1.00  0.00     0.040 A 
ATOM     18  C   UNL     1     -48.643   3.105  21.687  1.00  0.00     0.040 A 
ATOM     19  C   UNL     1     -47.809   0.553  21.024  1.00  0.00     0.013 A 
ATOM     20  C   UNL     1     -49.225   2.400  20.682  1.00  0.00     0.013 A 
ATOM     21  F   UNL     1     -47.042   3.182  23.316  1.00  0.00    -0.207 F 
ENDBRANCH  10  15
BRANCH  12  22
ATOM     22  S   UNL     1     -49.468  -0.694  15.527  1.00  0.00    -0.092 SA
ATOM     23  C   UNL     1     -47.877  -1.508  15.444  1.00  0.00     0.094 C 
ENDBRANCH  12  22
ENDBRANCH   4   9
ENDBRANCH   1   3
BRANCH   1  24
ATOM     24  C   UNL     1     -52.572   0.616  24.703  1.00  0.00     0.084 A 
ATOM     25  C   UNL     1     -52.995   0.569  26.008  1.00  0.00     0.142 A 
ATOM     26  C   UNL     1     -52.362   1.841  24.131  1.00  0.00     0.056 A 
ATOM     27  C   UNL     1     -53.219   1.730  26.681  1.00  0.00     0.051 A 
ATOM     28  C   UNL     1     -52.612   3.009  24.831  1.00  0.00     0.043 A 
ATOM     29  C   UNL     1     -53.025   2.945  26.114  1.00  0.00     0.030 A 
BRANCH  25  30
ATOM     30  O   UNL     1     -53.255  -0.528  26.795  1.00  0.00    -0.495 OA
ATOM     31  C   UNL     1     -52.347  -1.037  27.643  1.00  0.00     0.278 C 
ENDBRANCH  25  30
BRANCH  28  32
ATOM     32  N   UNL     1     -52.401   4.329  24.299  1.00  0.00    -0.326 N 
ATOM     33  C   UNL     1     -51.109   4.937  24.258  1.00  0.00     0.224 C 
ATOM     34  H   UNL     1     -53.173   4.831  23.952  1.00  0.00     0.169 HD
ATOM     35  O   UNL     1     -50.219   4.327  24.671  1.00  0.00    -0.275 OA
BRANCH  33  36
ATOM     36  C   UNL     1     -50.886   6.340  23.713  1.00  0.00     0.097 C 
ATOM     37  C   UNL     1     -50.193   6.409  22.357  1.00  0.00     0.014 C 
ENDBRANCH  33  36
ENDBRANCH  28  32
ENDBRANCH   1  24
TORSDOF 8
ENDMDL
MODEL 8
REMARK VINA RESULT:    -7.855      1.843      3.050
REMARK INTER + INTRA:         -12.506
REMARK INTER:                 -12.253
REMARK INTRA:                  -0.253
REMARK UNBOUND:                -0.977
REMARK SMILES CCC(=O)Nc1ccc(OC)c(Nc2cc(-c3nc(SC)[nH]c3-c3ccc(F)cc3)ccn2)c1
REMARK SMILES IDX 13 1 14 3 16 4 15 5 31 6 32 7 33 8 17 9 23 10 22 11 19 12
REMARK SMILES IDX 18 13 24 15 27 16 29 17 26 18 30 19 25 20 28 21 20 22 21 23
REMARK SMILES IDX 12 24 9 25 34 26 8 27 6 28 7 29 10 30 11 31 5 32 3 33 4 35
REMARK SMILES IDX 2 36 1 37
REMARK H PARENT 13 2 22 14 5 34
ROOT
ATOM      1  N   UNL     1     -53.653  -1.000  19.703  1.00  0.00    -0.337 N 
ATOM      2  H   UNL     1     -54.332  -1.506  19.200  1.00  0.00     0.168 HD
ENDROOT
BRANCH   1   3
ATOM      3  C   UNL     1     -53.747  -1.018  21.136  1.00  0.00     0.131 A 
ATOM      4  C   UNL     1     -52.924  -0.527  23.370  1.00  0.00     0.008 A 
ATOM      5  C   UNL     1     -52.796  -0.484  21.972  1.00  0.00     0.057 A 
ATOM      6  C   UNL     1     -54.056  -1.134  23.847  1.00  0.00     0.030 A 
ATOM      7  C   UNL     1     -54.950  -1.642  22.946  1.00  0.00     0.114 A 
ATOM      8  N   UNL     1     -54.764  -1.595  21.661  1.00  0.00    -0.239 NA
BRANCH   4   9
ATOM      9  C   UNL     1     -51.820   0.094  24.253  1.00  0.00     0.098 A 
ATOM     10  C   UNL     1     -51.424  -0.043  25.549  1.00  0.00     0.074 A 
ATOM     11  N   UNL     1     -50.402   0.717  25.744  1.00  0.00    -0.332 N 
ATOM     12  C   UNL     1     -50.116   1.335  24.637  1.00  0.00     0.166 A 
ATOM     13  N   UNL     1     -50.989   0.930  23.756  1.00  0.00    -0.222 NA
ATOM     14  H   UNL     1     -49.916   0.814  26.595  1.00  0.00     0.169 HD
BRANCH  10  15
ATOM     15  C   UNL     1     -51.946  -0.878  26.696  1.00  0.00     0.000 A 
ATOM     16  C   UNL     1     -52.992  -2.301  28.748  1.00  0.00     0.123 A 
ATOM     17  C   UNL     1     -52.284  -2.941  27.769  1.00  0.00     0.040 A 
ATOM     18  C   UNL     1     -53.202  -0.963  28.722  1.00  0.00     0.040 A 
ATOM     19  C   UNL     1     -51.768  -2.224  26.722  1.00  0.00     0.013 A 
ATOM     20  C   UNL     1     -52.673  -0.274  27.677  1.00  0.00     0.013 A 
ATOM     21  F   UNL     1     -53.483  -2.977  29.763  1.00  0.00    -0.207 F 
ENDBRANCH  10  15
BRANCH  12  22
ATOM     22  S   UNL     1     -48.768   2.502  24.380  1.00  0.00    -0.092 SA
ATOM     23  C   UNL     1     -48.059   2.139  22.778  1.00  0.00     0.094 C 
ENDBRANCH  12  22
ENDBRANCH   4   9
ENDBRANCH   1   3
BRANCH   1  24
ATOM     24  C   UNL     1     -52.661  -0.310  18.947  1.00  0.00     0.084 A 
ATOM     25  C   UNL     1     -52.266   0.972  19.240  1.00  0.00     0.142 A 
ATOM     26  C   UNL     1     -52.054  -0.955  17.904  1.00  0.00     0.056 A 
ATOM     27  C   UNL     1     -51.313   1.570  18.476  1.00  0.00     0.051 A 
ATOM     28  C   UNL     1     -51.098  -0.320  17.131  1.00  0.00     0.043 A 
ATOM     29  C   UNL     1     -50.720   0.939  17.434  1.00  0.00     0.030 A 
BRANCH  25  30
ATOM     30  O   UNL     1     -52.711   1.808  20.238  1.00  0.00    -0.495 OA
ATOM     31  C   UNL     1     -52.033   2.904  20.612  1.00  0.00     0.278 C 
ENDBRANCH  25  30
BRANCH  28  32
ATOM     32  N   UNL     1     -50.410  -0.940  16.029  1.00  0.00    -0.326 N 
ATOM     33  C   UNL     1     -48.985  -1.018  15.968  1.00  0.00     0.224 C 
ATOM     34  H   UNL     1     -50.939  -1.323  15.294  1.00  0.00     0.169 HD
ATOM     35  O   UNL     1     -48.387  -0.562  16.845  1.00  0.00    -0.275 OA
BRANCH  33  36
ATOM     36  C   UNL     1     -48.254  -1.656  14.795  1.00  0.00     0.097 C 
ATOM     37  C   UNL     1     -46.745  -1.440  14.774  1.00  0.00     0.014 C 
ENDBRANCH  33  36
ENDBRANCH  28  32
ENDBRANCH   1  24
TORSDOF 8
ENDMDL
MODEL 9
REMARK VINA RESULT:    -7.809      3.466      7.981
REMARK INTER + INTRA:         -12.438
REMARK INTER:                 -10.494
REMARK INTRA:                  -1.944
REMARK UNBOUND:                -0.977
REMARK SMILES CCC(=O)Nc1ccc(OC)c(Nc2cc(-c3nc(SC)[nH]c3-c3ccc(F)cc3)ccn2)c1
REMARK SMILES IDX 13 1 14 3 16 4 15 5 31 6 32 7 33 8 17 9 23 10 22 11 19 12
REMARK SMILES IDX 18 13 24 15 27 16 29 17 26 18 30 19 25 20 28 21 20 22 21 23
REMARK SMILES IDX 12 24 9 25 34 26 8 27 6 28 7 29 10 30 11 31 5 32 3 33 4 35
REMARK SMILES IDX 2 36 1 37
REMARK H PARENT 13 2 22 14 5 34
ROOT
ATOM      1  N   UNL     1     -52.763   1.452  22.654  1.00  0.00    -0.337 N 
ATOM      2  H   UNL     1     -53.395   2.206  22.620  1.00  0.00     0.168 HD
ENDROOT
BRANCH   1   3
ATOM      3  C   UNL     1     -52.688   0.603  21.499  1.00  0.00     0.131 A 
ATOM      4  C   UNL     1     -51.618  -0.218  19.477  1.00  0.00     0.008 A 
ATOM      5  C   UNL     1     -51.651   0.628  20.598  1.00  0.00     0.057 A 
ATOM      6  C   UNL     1     -52.685  -1.068  19.338  1.00  0.00     0.030 A 
ATOM      7  C   UNL     1     -53.675  -1.025  20.279  1.00  0.00     0.114 A 
ATOM      8  N   UNL     1     -53.663  -0.201  21.284  1.00  0.00    -0.239 NA
BRANCH   4   9
ATOM      9  C   UNL     1     -50.422  -0.142  18.502  1.00  0.00     0.098 A 
ATOM     10  C   UNL     1     -49.172   0.397  18.543  1.00  0.00     0.074 A 
ATOM     11  N   UNL     1     -48.576   0.127  17.433  1.00  0.00    -0.332 N 
ATOM     12  C   UNL     1     -49.380  -0.563  16.679  1.00  0.00     0.166 A 
ATOM     13  N   UNL     1     -50.483  -0.712  17.360  1.00  0.00    -0.222 NA
ATOM     14  H   UNL     1     -47.661   0.399  17.195  1.00  0.00     0.169 HD
BRANCH  10  15
ATOM     15  C   UNL     1     -48.432   1.190  19.597  1.00  0.00     0.000 A 
ATOM     16  C   UNL     1     -47.025   2.507  21.499  1.00  0.00     0.123 A 
ATOM     17  C   UNL     1     -47.489   3.184  20.405  1.00  0.00     0.040 A 
ATOM     18  C   UNL     1     -47.238   1.179  21.662  1.00  0.00     0.040 A 
ATOM     19  C   UNL     1     -48.187   2.516  19.435  1.00  0.00     0.013 A 
ATOM     20  C   UNL     1     -47.939   0.540  20.689  1.00  0.00     0.013 A 
ATOM     21  F   UNL     1     -46.363   3.140  22.442  1.00  0.00    -0.207 F 
ENDBRANCH  10  15
BRANCH  12  22
ATOM     22  S   UNL     1     -49.020  -1.197  15.031  1.00  0.00    -0.092 SA
ATOM     23  C   UNL     1     -47.453  -2.052  15.129  1.00  0.00     0.094 C 
ENDBRANCH  12  22
ENDBRANCH   4   9
ENDBRANCH   1   3
BRANCH   1  24
ATOM     24  C   UNL     1     -51.999   1.296  23.848  1.00  0.00     0.084 A 
ATOM     25  C   UNL     1     -50.749   1.841  24.002  1.00  0.00     0.142 A 
ATOM     26  C   UNL     1     -52.539   0.600  24.894  1.00  0.00     0.056 A 
ATOM     27  C   UNL     1     -50.074   1.651  25.168  1.00  0.00     0.051 A 
ATOM     28  C   UNL     1     -51.827   0.407  26.066  1.00  0.00     0.043 A 
ATOM     29  C   UNL     1     -50.600   0.951  26.202  1.00  0.00     0.030 A 
BRANCH  25  30
ATOM     30  O   UNL     1     -50.013   2.587  23.111  1.00  0.00    -0.495 OA
ATOM     31  C   UNL     1     -50.162   3.915  22.989  1.00  0.00     0.278 C 
ENDBRANCH  25  30
BRANCH  28  32
ATOM     32  N   UNL     1     -52.336  -0.302  27.211  1.00  0.00    -0.326 N 
ATOM     33  C   UNL     1     -52.180  -1.713  27.365  1.00  0.00     0.224 C 
ATOM     34  H   UNL     1     -52.808   0.203  27.911  1.00  0.00     0.169 HD
ATOM     35  O   UNL     1     -51.622  -2.283  26.529  1.00  0.00    -0.275 OA
BRANCH  33  36
ATOM     36  C   UNL     1     -52.734  -2.468  28.566  1.00  0.00     0.097 C 
ATOM     37  C   UNL     1     -53.014  -1.614  29.797  1.00  0.00     0.014 C 
ENDBRANCH  33  36
ENDBRANCH  28  32
ENDBRANCH   1  24
TORSDOF 8
ENDMDL
