ligand_out
     RDKit          3D

 58 61  0  0  0  0  0  0  0  0999 V2000
  -46.4580    1.0910   22.3770 C   0  0  0  0  0  0  0  0  0  0  0  0
  -47.1100    1.6320   21.1100 C   0  0  0  0  0  0  0  0  0  0  0  0
  -48.2470    0.7870   20.5530 C   0  0  0  0  0  0  0  0  0  0  0  0
  -48.5590   -0.1890   21.0870 O   0  0  0  0  0  0  0  0  0  0  0  0
  -48.9750    1.1610   19.3820 N   0  0  0  0  0  0  0  0  0  0  0  0
  -50.0610    0.3700   18.8680 C   0  0  0  0  0  0  0  0  0  0  0  0
  -49.8670   -0.1890   17.6560 C   0  0  0  0  0  0  0  0  0  0  0  0
  -50.8610   -0.9270   17.1050 C   0  0  0  0  0  0  0  0  0  0  0  0
  -52.0580   -1.1100   17.7250 C   0  0  0  0  0  0  0  0  0  0  0  0
  -52.9030   -1.8870   16.9680 O   0  0  0  0  0  0  0  0  0  0  0  0
  -52.7150   -3.2060   16.8060 C   0  0  0  0  0  0  0  0  0  0  0  0
  -52.2740   -0.5470   18.9580 C   0  0  0  0  0  0  0  0  0  0  0  0
  -53.5020   -0.6960   19.6670 N   0  0  0  0  0  0  0  0  0  0  0  0
  -53.6330   -0.8160   21.0920 C   0  0  0  0  0  0  0  0  0  0  0  0
  -52.7490   -0.2680   21.9900 C   0  0  0  0  0  0  0  0  0  0  0  0
  -52.9110   -0.4120   23.3770 C   0  0  0  0  0  0  0  0  0  0  0  0
  -51.8820    0.2300   24.3330 C   0  0  0  0  0  0  0  0  0  0  0  0
  -51.0500    1.0980   23.8970 N   0  0  0  0  0  0  0  0  0  0  0  0
  -50.2440    1.5170   24.8340 C   0  0  0  0  0  0  0  0  0  0  0  0
  -48.9210    2.7290   24.6740 S   0  0  0  0  0  0  0  0  0  0  0  0
  -48.1800    2.9130   26.2910 C   0  0  0  0  0  0  0  0  0  0  0  0
  -50.5760    0.8750   25.9150 N   0  0  0  0  0  0  0  0  0  0  0  0
  -51.5600    0.0870   25.6490 C   0  0  0  0  0  0  0  0  0  0  0  0
  -52.1230   -0.7810   26.7520 C   0  0  0  0  0  0  0  0  0  0  0  0
  -51.8920   -2.1230   26.7210 C   0  0  0  0  0  0  0  0  0  0  0  0
  -52.3380   -2.9620   27.6910 C   0  0  0  0  0  0  0  0  0  0  0  0
  -53.0200   -2.4070   28.7230 C   0  0  0  0  0  0  0  0  0  0  0  0
  -53.4720   -3.2100   29.6600 F   0  0  0  0  0  0  0  0  0  0  0  0
  -53.2500   -1.0610   28.7940 C   0  0  0  0  0  0  0  0  0  0  0  0
  -52.7830   -0.2360   27.8060 C   0  0  0  0  0  0  0  0  0  0  0  0
  -54.0070   -1.1320   23.7790 C   0  0  0  0  0  0  0  0  0  0  0  0
  -54.8340   -1.6440   22.8190 C   0  0  0  0  0  0  0  0  0  0  0  0
  -54.6170   -1.5000   21.5460 N   0  0  0  0  0  0  0  0  0  0  0  0
  -51.2770    0.2100   19.5110 C   0  0  0  0  0  0  0  0  0  0  0  0
  -46.9646    1.5114   23.2583 H   0  0  0  0  0  0  0  0  0  0  0  0
  -46.5429   -0.0056   22.3936 H   0  0  0  0  0  0  0  0  0  0  0  0
  -45.3959    1.3768   22.3936 H   0  0  0  0  0  0  0  0  0  0  0  0
  -47.5080    2.6329   21.3331 H   0  0  0  0  0  0  0  0  0  0  0  0
  -46.3249    1.6322   20.3396 H   0  0  0  0  0  0  0  0  0  0  0  0
  -48.7250    1.9880   18.9120 H   0  0  0  0  0  0  0  0  0  0  0  0
  -48.9155   -0.0479   17.1224 H   0  0  0  0  0  0  0  0  0  0  0  0
  -50.6944   -1.3940   16.1231 H   0  0  0  0  0  0  0  0  0  0  0  0
  -52.6460   -3.6903   17.7913 H   0  0  0  0  0  0  0  0  0  0  0  0
  -53.5616   -3.6311   16.2470 H   0  0  0  0  0  0  0  0  0  0  0  0
  -51.7833   -3.3776   16.2470 H   0  0  0  0  0  0  0  0  0  0  0  0
  -54.3300   -0.7200   19.1340 H   0  0  0  0  0  0  0  0  0  0  0  0
  -51.8877    0.3012   21.6103 H   0  0  0  0  0  0  0  0  0  0  0  0
  -48.9382    2.7247   27.0654 H   0  0  0  0  0  0  0  0  0  0  0  0
  -47.3565    2.1921   26.4012 H   0  0  0  0  0  0  0  0  0  0  0  0
  -47.7894    3.9354   26.4012 H   0  0  0  0  0  0  0  0  0  0  0  0
  -50.1450    0.9740   26.7940 H   0  0  0  0  0  0  0  0  0  0  0  0
  -51.3228   -2.5428   25.8786 H   0  0  0  0  0  0  0  0  0  0  0  0
  -52.1539   -4.0454   27.6416 H   0  0  0  0  0  0  0  0  0  0  0  0
  -53.8092   -0.6417   29.6434 H   0  0  0  0  0  0  0  0  0  0  0  0
  -52.9401    0.8511   27.8652 H   0  0  0  0  0  0  0  0  0  0  0  0
  -54.2151   -1.2932   24.8470 H   0  0  0  0  0  0  0  0  0  0  0  0
  -55.7250   -2.2042   23.1389 H   0  0  0  0  0  0  0  0  0  0  0  0
  -51.4442    0.6993   20.4819 H   0  0  0  0  0  0  0  0  0  0  0  0
  1  2  1  0
  2  3  1  0
  3  4  2  0
  3  5  1  0
  5  6  1  0
  6  7  2  0
  7  8  1  0
  8  9  2  0
  9 10  1  0
 10 11  1  0
  9 12  1  0
 12 13  1  0
 13 14  1  0
 14 15  2  0
 15 16  1  0
 16 17  1  0
 17 18  1  0
 18 19  2  0
 19 20  1  0
 20 21  1  0
 19 22  1  0
 22 23  1  0
 23 24  1  0
 24 25  2  0
 25 26  1  0
 26 27  2  0
 27 28  1  0
 27 29  1  0
 29 30  2  0
 16 31  2  0
 31 32  1  0
 32 33  2  0
 12 34  2  0
 34  6  1  0
 33 14  1  0
 23 17  2  0
 30 24  1  0
  1 35  1  0
  1 36  1  0
  1 37  1  0
  2 38  1  0
  2 39  1  0
  5 40  1  0
  7 41  1  0
  8 42  1  0
 11 43  1  0
 11 44  1  0
 11 45  1  0
 13 46  1  0
 15 47  1  0
 21 48  1  0
 21 49  1  0
 21 50  1  0
 22 51  1  0
 25 52  1  0
 26 53  1  0
 29 54  1  0
 30 55  1  0
 31 56  1  0
 32 57  1  0
 34 58  1  0
M  END
>  <meeko>  (1) 
{"is_sidechain": [false], "free_energy": -9.264, "intermolecular_energy": -13.596, "internal_energy": -0.977}

$$$$
ligand_out
     RDKit          3D

 58 61  0  0  0  0  0  0  0  0999 V2000
  -49.8750    5.6790   20.3860 C   0  0  0  0  0  0  0  0  0  0  0  0
  -49.6410    5.0540   19.0150 C   0  0  0  0  0  0  0  0  0  0  0  0
  -50.4560    3.8010   18.7260 C   0  0  0  0  0  0  0  0  0  0  0  0
  -51.4870    3.8870   18.2110 O   0  0  0  0  0  0  0  0  0  0  0  0
  -49.9880    2.4930   19.0550 N   0  0  0  0  0  0  0  0  0  0  0  0
  -50.7530    1.3090   18.7640 C   0  0  0  0  0  0  0  0  0  0  0  0
  -50.3220    0.5640   17.7240 C   0  0  0  0  0  0  0  0  0  0  0  0
  -51.0130   -0.5510   17.3840 C   0  0  0  0  0  0  0  0  0  0  0  0
  -52.1380   -0.9380   18.0430 C   0  0  0  0  0  0  0  0  0  0  0  0
  -52.6610   -2.0930   17.5110 O   0  0  0  0  0  0  0  0  0  0  0  0
  -52.3800   -2.5020   16.2640 C   0  0  0  0  0  0  0  0  0  0  0  0
  -52.5910   -0.1910   19.1020 C   0  0  0  0  0  0  0  0  0  0  0  0
  -53.7610   -0.5360   19.8400 N   0  0  0  0  0  0  0  0  0  0  0  0
  -53.8230   -0.7280   21.2620 C   0  0  0  0  0  0  0  0  0  0  0  0
  -52.8960   -0.2260   22.1430 C   0  0  0  0  0  0  0  0  0  0  0  0
  -52.9920   -0.4400   23.5280 C   0  0  0  0  0  0  0  0  0  0  0  0
  -51.9160    0.1530   24.4650 C   0  0  0  0  0  0  0  0  0  0  0  0
  -51.0410    0.9660   24.0090 N   0  0  0  0  0  0  0  0  0  0  0  0
  -50.2020    1.3500   24.9320 C   0  0  0  0  0  0  0  0  0  0  0  0
  -48.8140    2.4820   24.7420 S   0  0  0  0  0  0  0  0  0  0  0  0
  -48.2070    2.8480   26.3840 C   0  0  0  0  0  0  0  0  0  0  0  0
  -50.5580    0.7400   26.0240 N   0  0  0  0  0  0  0  0  0  0  0  0
  -51.5880    0.0070   25.7780 C   0  0  0  0  0  0  0  0  0  0  0  0
  -52.1860   -0.8140   26.8980 C   0  0  0  0  0  0  0  0  0  0  0  0
  -51.9650   -2.1580   26.9240 C   0  0  0  0  0  0  0  0  0  0  0  0
  -52.4430   -2.9570   27.9130 C   0  0  0  0  0  0  0  0  0  0  0  0
  -53.1470   -2.3580   28.9040 C   0  0  0  0  0  0  0  0  0  0  0  0
  -53.6310   -3.1220   29.8590 F   0  0  0  0  0  0  0  0  0  0  0  0
  -53.3700   -1.0090   28.9180 C   0  0  0  0  0  0  0  0  0  0  0  0
  -52.8710   -0.2250   27.9130 C   0  0  0  0  0  0  0  0  0  0  0  0
  -54.0680   -1.1810   23.9450 C   0  0  0  0  0  0  0  0  0  0  0  0
  -54.9410   -1.6440   23.0010 C   0  0  0  0  0  0  0  0  0  0  0  0
  -54.7860   -1.4350   21.7280 N   0  0  0  0  0  0  0  0  0  0  0  0
  -51.9040    0.9430   19.4400 C   0  0  0  0  0  0  0  0  0  0  0  0
  -49.6043    4.9560   21.1696 H   0  0  0  0  0  0  0  0  0  0  0  0
  -49.2536    6.5809   20.4887 H   0  0  0  0  0  0  0  0  0  0  0  0
  -50.9359    5.9510   20.4887 H   0  0  0  0  0  0  0  0  0  0  0  0
  -49.8901    5.8056   18.2514 H   0  0  0  0  0  0  0  0  0  0  0  0
  -48.5861    4.7427   18.9976 H   0  0  0  0  0  0  0  0  0  0  0  0
  -49.1140    2.3970   19.4950 H   0  0  0  0  0  0  0  0  0  0  0  0
  -49.4236    0.8575   17.1612 H   0  0  0  0  0  0  0  0  0  0  0  0
  -50.6514   -1.1645   16.5457 H   0  0  0  0  0  0  0  0  0  0  0  0
  -51.7576   -3.4080   16.3068 H   0  0  0  0  0  0  0  0  0  0  0  0
  -53.3163   -2.7252   15.7316 H   0  0  0  0  0  0  0  0  0  0  0  0
  -51.8358   -1.7080   15.7316 H   0  0  0  0  0  0  0  0  0  0  0  0
  -54.5960   -0.6530   19.3320 H   0  0  0  0  0  0  0  0  0  0  0  0
  -52.0525    0.3617   21.7517 H   0  0  0  0  0  0  0  0  0  0  0  0
  -48.8980    2.4314   27.1317 H   0  0  0  0  0  0  0  0  0  0  0  0
  -47.2111    2.3997   26.5151 H   0  0  0  0  0  0  0  0  0  0  0  0
  -48.1386    3.9380   26.5151 H   0  0  0  0  0  0  0  0  0  0  0  0
  -50.1120    0.8250   26.8970 H   0  0  0  0  0  0  0  0  0  0  0  0
  -51.3772   -2.6134   26.1134 H   0  0  0  0  0  0  0  0  0  0  0  0
  -52.2664   -4.0427   27.9097 H   0  0  0  0  0  0  0  0  0  0  0  0
  -53.9493   -0.5547   29.7353 H   0  0  0  0  0  0  0  0  0  0  0  0
  -53.0221    0.8645   27.9268 H   0  0  0  0  0  0  0  0  0  0  0  0
  -54.2244   -1.3972   25.0121 H   0  0  0  0  0  0  0  0  0  0  0  0
  -55.8162   -2.2208   23.3346 H   0  0  0  0  0  0  0  0  0  0  0  0
  -52.2724    1.5740   20.2623 H   0  0  0  0  0  0  0  0  0  0  0  0
  1  2  1  0
  2  3  1  0
  3  4  2  0
  3  5  1  0
  5  6  1  0
  6  7  2  0
  7  8  1  0
  8  9  2  0
  9 10  1  0
 10 11  1  0
  9 12  1  0
 12 13  1  0
 13 14  1  0
 14 15  2  0
 15 16  1  0
 16 17  1  0
 17 18  1  0
 18 19  2  0
 19 20  1  0
 20 21  1  0
 19 22  1  0
 22 23  1  0
 23 24  1  0
 24 25  2  0
 25 26  1  0
 26 27  2  0
 27 28  1  0
 27 29  1  0
 29 30  2  0
 16 31  2  0
 31 32  1  0
 32 33  2  0
 12 34  2  0
 34  6  1  0
 33 14  1  0
 23 17  2  0
 30 24  1  0
  1 35  1  0
  1 36  1  0
  1 37  1  0
  2 38  1  0
  2 39  1  0
  5 40  1  0
  7 41  1  0
  8 42  1  0
 11 43  1  0
 11 44  1  0
 11 45  1  0
 13 46  1  0
 15 47  1  0
 21 48  1  0
 21 49  1  0
 21 50  1  0
 22 51  1  0
 25 52  1  0
 26 53  1  0
 29 54  1  0
 30 55  1  0
 31 56  1  0
 32 57  1  0
 34 58  1  0
M  END
>  <meeko>  (2) 
{"is_sidechain": [false], "free_energy": -9.037, "intermolecular_energy": -13.12, "internal_energy": -1.121}

$$$$
ligand_out
     RDKit          3D

 58 61  0  0  0  0  0  0  0  0999 V2000
  -50.7750    6.1500   22.3060 C   0  0  0  0  0  0  0  0  0  0  0  0
  -50.8580    6.1770   23.8280 C   0  0  0  0  0  0  0  0  0  0  0  0
  -51.6040    5.0090   24.4580 C   0  0  0  0  0  0  0  0  0  0  0  0
  -52.6010    4.6450   24.0020 O   0  0  0  0  0  0  0  0  0  0  0  0
  -51.1090    4.3150   25.6040 N   0  0  0  0  0  0  0  0  0  0  0  0
  -51.8070    3.2000   26.1870 C   0  0  0  0  0  0  0  0  0  0  0  0
  -52.4000    3.4280   27.3780 C   0  0  0  0  0  0  0  0  0  0  0  0
  -53.0530    2.4110   27.9910 C   0  0  0  0  0  0  0  0  0  0  0  0
  -53.1180    1.1620   27.4570 C   0  0  0  0  0  0  0  0  0  0  0  0
  -53.8280    0.3050   28.2650 O   0  0  0  0  0  0  0  0  0  0  0  0
  -53.2310   -0.6290   29.0220 C   0  0  0  0  0  0  0  0  0  0  0  0
  -52.5200    0.9130   26.2470 C   0  0  0  0  0  0  0  0  0  0  0  0
  -52.5480   -0.3700   25.6260 N   0  0  0  0  0  0  0  0  0  0  0  0
  -53.1530   -0.6690   24.3580 C   0  0  0  0  0  0  0  0  0  0  0  0
  -52.5270   -0.4820   23.1490 C   0  0  0  0  0  0  0  0  0  0  0  0
  -53.1560   -0.7840   21.9300 C   0  0  0  0  0  0  0  0  0  0  0  0
  -52.3960   -0.5520   20.6050 C   0  0  0  0  0  0  0  0  0  0  0  0
  -52.8680   -0.9980   19.5040 N   0  0  0  0  0  0  0  0  0  0  0  0
  -52.0880   -0.7290   18.4930 C   0  0  0  0  0  0  0  0  0  0  0  0
  -52.3510   -1.1670   16.7650 S   0  0  0  0  0  0  0  0  0  0  0  0
  -52.7410   -2.9120   16.7200 C   0  0  0  0  0  0  0  0  0  0  0  0
  -51.0660   -0.0890   18.9810 N   0  0  0  0  0  0  0  0  0  0  0  0
  -51.2170    0.0340   20.2540 C   0  0  0  0  0  0  0  0  0  0  0  0
  -50.1470    0.7410   21.0540 C   0  0  0  0  0  0  0  0  0  0  0  0
  -50.4600    1.8980   21.7000 C   0  0  0  0  0  0  0  0  0  0  0  0
  -49.5610    2.5730   22.4630 C   0  0  0  0  0  0  0  0  0  0  0  0
  -48.3220    2.0370   22.5770 C   0  0  0  0  0  0  0  0  0  0  0  0
  -47.4370    2.6890   23.2980 F   0  0  0  0  0  0  0  0  0  0  0  0
  -47.9820    0.8670   21.9580 C   0  0  0  0  0  0  0  0  0  0  0  0
  -48.9090    0.2020   21.2000 C   0  0  0  0  0  0  0  0  0  0  0  0
  -54.4310   -1.2780   22.0220 C   0  0  0  0  0  0  0  0  0  0  0  0
  -54.9800   -1.4300   23.2640 C   0  0  0  0  0  0  0  0  0  0  0  0
  -54.3570   -1.1080   24.3590 N   0  0  0  0  0  0  0  0  0  0  0  0
  -51.8470    1.9330   25.6310 C   0  0  0  0  0  0  0  0  0  0  0  0
  -49.7704    5.8232   21.9993 H   0  0  0  0  0  0  0  0  0  0  0  0
  -51.5252    5.4496   21.9102 H   0  0  0  0  0  0  0  0  0  0  0  0
  -50.9695    7.1577   21.9102 H   0  0  0  0  0  0  0  0  0  0  0  0
  -49.8320    6.1790   24.2246 H   0  0  0  0  0  0  0  0  0  0  0  0
  -51.4311    7.0797   24.0862 H   0  0  0  0  0  0  0  0  0  0  0  0
  -50.2620    4.6100   26.0090 H   0  0  0  0  0  0  0  0  0  0  0  0
  -52.3539    4.4235   27.8436 H   0  0  0  0  0  0  0  0  0  0  0  0
  -53.5479    2.6025   28.9545 H   0  0  0  0  0  0  0  0  0  0  0  0
  -53.3829   -0.3913   30.0852 H   0  0  0  0  0  0  0  0  0  0  0  0
  -53.6672   -1.6142   28.8006 H   0  0  0  0  0  0  0  0  0  0  0  0
  -52.1537   -0.6468   28.8006 H   0  0  0  0  0  0  0  0  0  0  0  0
  -52.1170   -1.1130   26.1060 H   0  0  0  0  0  0  0  0  0  0  0  0
  -51.5018   -0.0835   23.1355 H   0  0  0  0  0  0  0  0  0  0  0  0
  -52.8266   -3.2952   17.7475 H   0  0  0  0  0  0  0  0  0  0  0  0
  -53.6946   -3.0611   16.1924 H   0  0  0  0  0  0  0  0  0  0  0  0
  -51.9416   -3.4529   16.1924 H   0  0  0  0  0  0  0  0  0  0  0  0
  -50.3010    0.2470   18.4610 H   0  0  0  0  0  0  0  0  0  0  0  0
  -51.4786    2.3012   21.6005 H   0  0  0  0  0  0  0  0  0  0  0  0
  -49.8276    3.5140   22.9664 H   0  0  0  0  0  0  0  0  0  0  0  0
  -46.9660    0.4602   22.0683 H   0  0  0  0  0  0  0  0  0  0  0  0
  -48.6549   -0.7532   20.7173 H   0  0  0  0  0  0  0  0  0  0  0  0
  -54.9984   -1.5455   21.1184 H   0  0  0  0  0  0  0  0  0  0  0  0
  -55.9962   -1.8440   23.3411 H   0  0  0  0  0  0  0  0  0  0  0  0
  -51.3297    1.7430   24.6790 H   0  0  0  0  0  0  0  0  0  0  0  0
  1  2  1  0
  2  3  1  0
  3  4  2  0
  3  5  1  0
  5  6  1  0
  6  7  2  0
  7  8  1  0
  8  9  2  0
  9 10  1  0
 10 11  1  0
  9 12  1  0
 12 13  1  0
 13 14  1  0
 14 15  2  0
 15 16  1  0
 16 17  1  0
 17 18  1  0
 18 19  2  0
 19 20  1  0
 20 21  1  0
 19 22  1  0
 22 23  1  0
 23 24  1  0
 24 25  2  0
 25 26  1  0
 26 27  2  0
 27 28  1  0
 27 29  1  0
 29 30  2  0
 16 31  2  0
 31 32  1  0
 32 33  2  0
 12 34  2  0
 34  6  1  0
 33 14  1  0
 23 17  2  0
 30 24  1  0
  1 35  1  0
  1 36  1  0
  1 37  1  0
  2 38  1  0
  2 39  1  0
  5 40  1  0
  7 41  1  0
  8 42  1  0
 11 43  1  0
 11 44  1  0
 11 45  1  0
 13 46  1  0
 15 47  1  0
 21 48  1  0
 21 49  1  0
 21 50  1  0
 22 51  1  0
 25 52  1  0
 26 53  1  0
 29 54  1  0
 30 55  1  0
 31 56  1  0
 32 57  1  0
 34 58  1  0
M  END
>  <meeko>  (3) 
{"is_sidechain": [false], "free_energy": -8.6, "intermolecular_energy": -11.653, "internal_energy": -1.947}

$$$$
ligand_out
     RDKit          3D

 58 61  0  0  0  0  0  0  0  0999 V2000
  -53.1260   -0.4210   28.5510 C   0  0  0  0  0  0  0  0  0  0  0  0
  -53.8610    0.6150   27.7090 C   0  0  0  0  0  0  0  0  0  0  0  0
  -52.9750    1.4780   26.8210 C   0  0  0  0  0  0  0  0  0  0  0  0
  -51.9570    1.0750   26.4510 O   0  0  0  0  0  0  0  0  0  0  0  0
  -53.3580    2.7880   26.4010 N   0  0  0  0  0  0  0  0  0  0  0  0
  -52.5270    3.5950   25.5480 C   0  0  0  0  0  0  0  0  0  0  0  0
  -51.5290    4.2690   26.1570 C   0  0  0  0  0  0  0  0  0  0  0  0
  -50.7250    5.0660   25.4120 C   0  0  0  0  0  0  0  0  0  0  0  0
  -50.8990    5.2250   24.0720 C   0  0  0  0  0  0  0  0  0  0  0  0
  -49.9660    6.0840   23.5410 O   0  0  0  0  0  0  0  0  0  0  0  0
  -48.6710    5.7550   23.4220 C   0  0  0  0  0  0  0  0  0  0  0  0
  -51.9100    4.5470   23.4370 C   0  0  0  0  0  0  0  0  0  0  0  0
  -52.1520    4.6640   22.0370 N   0  0  0  0  0  0  0  0  0  0  0  0
  -51.4990    3.8990   21.0120 C   0  0  0  0  0  0  0  0  0  0  0  0
  -51.9470    2.6800   20.5640 C   0  0  0  0  0  0  0  0  0  0  0  0
  -51.2760    1.9620   19.5610 C   0  0  0  0  0  0  0  0  0  0  0  0
  -51.8340    0.5970   19.1010 C   0  0  0  0  0  0  0  0  0  0  0  0
  -51.7390    0.2400   17.8770 N   0  0  0  0  0  0  0  0  0  0  0  0
  -52.2800   -0.9280   17.6640 C   0  0  0  0  0  0  0  0  0  0  0  0
  -52.3790   -1.8170   16.1000 S   0  0  0  0  0  0  0  0  0  0  0  0
  -52.7570   -3.5210   16.4880 C   0  0  0  0  0  0  0  0  0  0  0  0
  -52.7510   -1.3260   18.8090 N   0  0  0  0  0  0  0  0  0  0  0  0
  -52.5020   -0.4290   19.6990 C   0  0  0  0  0  0  0  0  0  0  0  0
  -52.9630   -0.6590   21.1200 C   0  0  0  0  0  0  0  0  0  0  0  0
  -52.0900   -0.4390   22.1430 C   0  0  0  0  0  0  0  0  0  0  0  0
  -52.4400   -0.5940   23.4470 C   0  0  0  0  0  0  0  0  0  0  0  0
  -53.7180   -0.9650   23.7030 C   0  0  0  0  0  0  0  0  0  0  0  0
  -54.0650   -1.1350   24.9600 F   0  0  0  0  0  0  0  0  0  0  0  0
  -54.6240   -1.1730   22.7010 C   0  0  0  0  0  0  0  0  0  0  0  0
  -54.2480   -1.0030   21.3950 C   0  0  0  0  0  0  0  0  0  0  0  0
  -50.1470    2.5530   19.0570 C   0  0  0  0  0  0  0  0  0  0  0  0
  -49.7690    3.7660   19.5620 C   0  0  0  0  0  0  0  0  0  0  0  0
  -50.4180    4.3720   20.5100 N   0  0  0  0  0  0  0  0  0  0  0  0
  -52.7330    3.7530   24.1880 C   0  0  0  0  0  0  0  0  0  0  0  0
  -53.2807   -0.2029   29.6180 H   0  0  0  0  0  0  0  0  0  0  0  0
  -53.5159   -1.4236   28.3214 H   0  0  0  0  0  0  0  0  0  0  0  0
  -52.0509   -0.3842   28.3214 H   0  0  0  0  0  0  0  0  0  0  0  0
  -54.5750    0.0834   27.0628 H   0  0  0  0  0  0  0  0  0  0  0  0
  -54.3396    1.3026   28.4218 H   0  0  0  0  0  0  0  0  0  0  0  0
  -54.2210    3.1510   26.7050 H   0  0  0  0  0  0  0  0  0  0  0  0
  -51.3706    4.1730   27.2413 H   0  0  0  0  0  0  0  0  0  0  0  0
  -49.9031    5.6031   25.9080 H   0  0  0  0  0  0  0  0  0  0  0  0
  -48.2279    5.6424   24.4225 H   0  0  0  0  0  0  0  0  0  0  0  0
  -48.5828    4.8059   22.8730 H   0  0  0  0  0  0  0  0  0  0  0  0
  -48.1405    6.5469   22.8730 H   0  0  0  0  0  0  0  0  0  0  0  0
  -52.8230    5.3240   21.7490 H   0  0  0  0  0  0  0  0  0  0  0  0
  -52.8599    2.2531   21.0048 H   0  0  0  0  0  0  0  0  0  0  0  0
  -52.7858   -3.6507   17.5799 H   0  0  0  0  0  0  0  0  0  0  0  0
  -53.7357   -3.7858   16.0614 H   0  0  0  0  0  0  0  0  0  0  0  0
  -51.9821   -4.1748   16.0614 H   0  0  0  0  0  0  0  0  0  0  0  0
  -53.2210   -2.1750   18.9700 H   0  0  0  0  0  0  0  0  0  0  0  0
  -51.0634   -0.1241   21.9043 H   0  0  0  0  0  0  0  0  0  0  0  0
  -51.7175   -0.4257   24.2592 H   0  0  0  0  0  0  0  0  0  0  0  0
  -55.6533   -1.4764   22.9430 H   0  0  0  0  0  0  0  0  0  0  0  0
  -54.9752   -1.1428   20.5816 H   0  0  0  0  0  0  0  0  0  0  0  0
  -49.5596    2.0638   18.2660 H   0  0  0  0  0  0  0  0  0  0  0  0
  -48.8737    4.2513   19.1462 H   0  0  0  0  0  0  0  0  0  0  0  0
  -53.5718    3.2318   23.7036 H   0  0  0  0  0  0  0  0  0  0  0  0
  1  2  1  0
  2  3  1  0
  3  4  2  0
  3  5  1  0
  5  6  1  0
  6  7  2  0
  7  8  1  0
  8  9  2  0
  9 10  1  0
 10 11  1  0
  9 12  1  0
 12 13  1  0
 13 14  1  0
 14 15  2  0
 15 16  1  0
 16 17  1  0
 17 18  1  0
 18 19  2  0
 19 20  1  0
 20 21  1  0
 19 22  1  0
 22 23  1  0
 23 24  1  0
 24 25  2  0
 25 26  1  0
 26 27  2  0
 27 28  1  0
 27 29  1  0
 29 30  2  0
 16 31  2  0
 31 32  1  0
 32 33  2  0
 12 34  2  0
 34  6  1  0
 33 14  1  0
 23 17  2  0
 30 24  1  0
  1 35  1  0
  1 36  1  0
  1 37  1  0
  2 38  1  0
  2 39  1  0
  5 40  1  0
  7 41  1  0
  8 42  1  0
 11 43  1  0
 11 44  1  0
 11 45  1  0
 13 46  1  0
 15 47  1  0
 21 48  1  0
 21 49  1  0
 21 50  1  0
 22 51  1  0
 25 52  1  0
 26 53  1  0
 29 54  1  0
 30 55  1  0
 31 56  1  0
 32 57  1  0
 34 58  1  0
M  END
>  <meeko>  (4) 
{"is_sidechain": [false], "free_energy": -8.547, "intermolecular_energy": -11.448, "internal_energy": -2.074}

$$$$
ligand_out
     RDKit          3D

 58 61  0  0  0  0  0  0  0  0999 V2000
  -52.4840   -2.3020   16.7450 C   0  0  0  0  0  0  0  0  0  0  0  0
  -52.2680   -0.9490   16.0780 C   0  0  0  0  0  0  0  0  0  0  0  0
  -51.5540    0.0900   16.9310 C   0  0  0  0  0  0  0  0  0  0  0  0
  -51.0680    1.0130   16.4360 O   0  0  0  0  0  0  0  0  0  0  0  0
  -51.4670   -0.0190   18.3530 N   0  0  0  0  0  0  0  0  0  0  0  0
  -50.8070    0.9730   19.1600 C   0  0  0  0  0  0  0  0  0  0  0  0
  -49.4670    0.8540   19.2680 C   0  0  0  0  0  0  0  0  0  0  0  0
  -48.7890    1.7430   20.0330 C   0  0  0  0  0  0  0  0  0  0  0  0
  -49.4140    2.7430   20.7120 C   0  0  0  0  0  0  0  0  0  0  0  0
  -48.5170    3.5080   21.4210 O   0  0  0  0  0  0  0  0  0  0  0  0
  -47.9860    3.1020   22.5850 C   0  0  0  0  0  0  0  0  0  0  0  0
  -50.7760    2.8770   20.6150 C   0  0  0  0  0  0  0  0  0  0  0  0
  -51.4980    3.9000   21.2970 N   0  0  0  0  0  0  0  0  0  0  0  0
  -51.8950    3.8620   22.6760 C   0  0  0  0  0  0  0  0  0  0  0  0
  -52.1930    2.7060   23.3550 C   0  0  0  0  0  0  0  0  0  0  0  0
  -52.5820    2.7130   24.7050 C   0  0  0  0  0  0  0  0  0  0  0  0
  -52.9010    1.3770   25.4110 C   0  0  0  0  0  0  0  0  0  0  0  0
  -52.9770    1.3230   26.6860 N   0  0  0  0  0  0  0  0  0  0  0  0
  -53.2330    0.1150   27.1100 C   0  0  0  0  0  0  0  0  0  0  0  0
  -53.4230   -0.4230   28.8190 S   0  0  0  0  0  0  0  0  0  0  0  0
  -52.6850   -2.0480   28.9410 C   0  0  0  0  0  0  0  0  0  0  0  0
  -53.3130   -0.6340   26.0500 N   0  0  0  0  0  0  0  0  0  0  0  0
  -53.1150    0.0940   25.0060 C   0  0  0  0  0  0  0  0  0  0  0  0
  -53.1490   -0.5570   23.6420 C   0  0  0  0  0  0  0  0  0  0  0  0
  -54.3500   -0.9250   23.1140 C   0  0  0  0  0  0  0  0  0  0  0  0
  -54.4630   -1.4870   21.8820 C   0  0  0  0  0  0  0  0  0  0  0  0
  -53.3210   -1.6560   21.1730 C   0  0  0  0  0  0  0  0  0  0  0  0
  -53.4150   -2.2150   19.9870 F   0  0  0  0  0  0  0  0  0  0  0  0
  -52.1030   -1.2790   21.6660 C   0  0  0  0  0  0  0  0  0  0  0  0
  -52.0160   -0.7090   22.9080 C   0  0  0  0  0  0  0  0  0  0  0  0
  -52.6460    3.9460   25.3010 C   0  0  0  0  0  0  0  0  0  0  0  0
  -52.3370    5.0460   24.5510 C   0  0  0  0  0  0  0  0  0  0  0  0
  -52.0070    4.9790   23.2960 N   0  0  0  0  0  0  0  0  0  0  0  0
  -51.4660    1.9730   19.8540 C   0  0  0  0  0  0  0  0  0  0  0  0
  -52.4644   -2.1793   17.8380 H   0  0  0  0  0  0  0  0  0  0  0  0
  -53.4587   -2.7101   16.4393 H   0  0  0  0  0  0  0  0  0  0  0  0
  -51.6848   -2.9933   16.4393 H   0  0  0  0  0  0  0  0  0  0  0  0
  -51.6712   -1.1100   15.1681 H   0  0  0  0  0  0  0  0  0  0  0  0
  -53.2713   -0.5434   15.8808 H   0  0  0  0  0  0  0  0  0  0  0  0
  -51.8730   -0.7980   18.7960 H   0  0  0  0  0  0  0  0  0  0  0  0
  -48.9337    0.0478   18.7431 H   0  0  0  0  0  0  0  0  0  0  0  0
  -47.6952    1.6534   20.1079 H   0  0  0  0  0  0  0  0  0  0  0  0
  -48.5554    3.5374   23.4194 H   0  0  0  0  0  0  0  0  0  0  0  0
  -48.0293    2.0045   22.6447 H   0  0  0  0  0  0  0  0  0  0  0  0
  -46.9382    3.4314   22.6447 H   0  0  0  0  0  0  0  0  0  0  0  0
  -51.7450    4.6990   20.7780 H   0  0  0  0  0  0  0  0  0  0  0  0
  -52.1250    1.7444   22.8252 H   0  0  0  0  0  0  0  0  0  0  0  0
  -52.5630   -2.3167   30.0007 H   0  0  0  0  0  0  0  0  0  0  0  0
  -53.3369   -2.7847   28.4487 H   0  0  0  0  0  0  0  0  0  0  0  0
  -51.7013   -2.0419   28.4487 H   0  0  0  0  0  0  0  0  0  0  0  0
  -53.4950   -1.6010   26.0470 H   0  0  0  0  0  0  0  0  0  0  0  0
  -55.2618   -0.7611   23.7070 H   0  0  0  0  0  0  0  0  0  0  0  0
  -55.4396   -1.7916   21.4778 H   0  0  0  0  0  0  0  0  0  0  0  0
  -51.1941   -1.4333   21.0659 H   0  0  0  0  0  0  0  0  0  0  0  0
  -51.0445   -0.3795   23.3050 H   0  0  0  0  0  0  0  0  0  0  0  0
  -52.9387    4.0474   26.3565 H   0  0  0  0  0  0  0  0  0  0  0  0
  -52.3692    6.0345   25.0324 H   0  0  0  0  0  0  0  0  0  0  0  0
  -52.5621    2.0421   19.7928 H   0  0  0  0  0  0  0  0  0  0  0  0
  1  2  1  0
  2  3  1  0
  3  4  2  0
  3  5  1  0
  5  6  1  0
  6  7  2  0
  7  8  1  0
  8  9  2  0
  9 10  1  0
 10 11  1  0
  9 12  1  0
 12 13  1  0
 13 14  1  0
 14 15  2  0
 15 16  1  0
 16 17  1  0
 17 18  1  0
 18 19  2  0
 19 20  1  0
 20 21  1  0
 19 22  1  0
 22 23  1  0
 23 24  1  0
 24 25  2  0
 25 26  1  0
 26 27  2  0
 27 28  1  0
 27 29  1  0
 29 30  2  0
 16 31  2  0
 31 32  1  0
 32 33  2  0
 12 34  2  0
 34  6  1  0
 33 14  1  0
 23 17  2  0
 30 24  1  0
  1 35  1  0
  1 36  1  0
  1 37  1  0
  2 38  1  0
  2 39  1  0
  5 40  1  0
  7 41  1  0
  8 42  1  0
 11 43  1  0
 11 44  1  0
 11 45  1  0
 13 46  1  0
 15 47  1  0
 21 48  1  0
 21 49  1  0
 21 50  1  0
 22 51  1  0
 25 52  1  0
 26 53  1  0
 29 54  1  0
 30 55  1  0
 31 56  1  0
 32 57  1  0
 34 58  1  0
M  END
>  <meeko>  (5) 
{"is_sidechain": [false], "free_energy": -8.518, "intermolecular_energy": -11.298, "internal_energy": -2.182}

$$$$
ligand_out
     RDKit          3D

 58 61  0  0  0  0  0  0  0  0999 V2000
  -49.8180    0.8180   16.8090 C   0  0  0  0  0  0  0  0  0  0  0  0
  -50.5800    2.0530   16.3410 C   0  0  0  0  0  0  0  0  0  0  0  0
  -50.7440    3.1490   17.3850 C   0  0  0  0  0  0  0  0  0  0  0  0
  -51.4080    4.0670   17.1610 O   0  0  0  0  0  0  0  0  0  0  0  0
  -50.1120    3.0860   18.6640 N   0  0  0  0  0  0  0  0  0  0  0  0
  -50.2820    4.1140   19.6560 C   0  0  0  0  0  0  0  0  0  0  0  0
  -49.3440    5.0840   19.6730 C   0  0  0  0  0  0  0  0  0  0  0  0
  -49.4340    6.0690   20.5990 C   0  0  0  0  0  0  0  0  0  0  0  0
  -50.4300    6.1060   21.5250 C   0  0  0  0  0  0  0  0  0  0  0  0
  -50.3040    7.1950   22.3570 O   0  0  0  0  0  0  0  0  0  0  0  0
  -49.6120    7.1460   23.5060 C   0  0  0  0  0  0  0  0  0  0  0  0
  -51.3910    5.1270   21.5230 C   0  0  0  0  0  0  0  0  0  0  0  0
  -52.4640    5.1020   22.4620 N   0  0  0  0  0  0  0  0  0  0  0  0
  -52.4430    4.4370   23.7350 C   0  0  0  0  0  0  0  0  0  0  0  0
  -52.4220    3.0710   23.8840 C   0  0  0  0  0  0  0  0  0  0  0  0
  -52.4060    2.4600   25.1480 C   0  0  0  0  0  0  0  0  0  0  0  0
  -52.3800    0.9190   25.2460 C   0  0  0  0  0  0  0  0  0  0  0  0
  -52.4080    0.3450   26.3880 N   0  0  0  0  0  0  0  0  0  0  0  0
  -52.3590   -0.9550   26.2830 C   0  0  0  0  0  0  0  0  0  0  0  0
  -52.3710   -2.1590   27.6240 S   0  0  0  0  0  0  0  0  0  0  0  0
  -53.0790   -1.3470   29.0510 C   0  0  0  0  0  0  0  0  0  0  0  0
  -52.2860   -1.2160   25.0120 N   0  0  0  0  0  0  0  0  0  0  0  0
  -52.2940   -0.1080   24.3550 C   0  0  0  0  0  0  0  0  0  0  0  0
  -52.2080   -0.1490   22.8470 C   0  0  0  0  0  0  0  0  0  0  0  0
  -53.3500   -0.3200   22.1230 C   0  0  0  0  0  0  0  0  0  0  0  0
  -53.3570   -0.3370   20.7650 C   0  0  0  0  0  0  0  0  0  0  0  0
  -52.1690   -0.1560   20.1390 C   0  0  0  0  0  0  0  0  0  0  0  0
  -52.1590   -0.1880   18.8250 F   0  0  0  0  0  0  0  0  0  0  0  0
  -51.0080    0.0380   20.8350 C   0  0  0  0  0  0  0  0  0  0  0  0
  -51.0290    0.0570   22.2040 C   0  0  0  0  0  0  0  0  0  0  0  0
  -52.4130    3.3110   26.2230 C   0  0  0  0  0  0  0  0  0  0  0  0
  -52.4380    4.6560   25.9850 C   0  0  0  0  0  0  0  0  0  0  0  0
  -52.4770    5.1650   24.7900 N   0  0  0  0  0  0  0  0  0  0  0  0
  -51.2960    4.1230   20.5990 C   0  0  0  0  0  0  0  0  0  0  0  0
  -49.8019    0.7919   17.9086 H   0  0  0  0  0  0  0  0  0  0  0  0
  -50.3155   -0.0861   16.4280 H   0  0  0  0  0  0  0  0  0  0  0  0
  -48.7868    0.8572   16.4280 H   0  0  0  0  0  0  0  0  0  0  0  0
  -50.0416    2.4795   15.4818 H   0  0  0  0  0  0  0  0  0  0  0  0
  -51.5963    1.7099   16.0971 H   0  0  0  0  0  0  0  0  0  0  0  0
  -49.5420    2.3120   18.8750 H   0  0  0  0  0  0  0  0  0  0  0  0
  -48.5186    5.0751   18.9459 H   0  0  0  0  0  0  0  0  0  0  0  0
  -48.6758    6.8660   20.6022 H   0  0  0  0  0  0  0  0  0  0  0  0
  -50.3086    7.1953   24.3559 H   0  0  0  0  0  0  0  0  0  0  0  0
  -49.0436    6.2054   23.5519 H   0  0  0  0  0  0  0  0  0  0  0  0
  -48.9167    7.9972   23.5519 H   0  0  0  0  0  0  0  0  0  0  0  0
  -53.2890    5.5810   22.2170 H   0  0  0  0  0  0  0  0  0  0  0  0
  -52.4176    2.4368   22.9853 H   0  0  0  0  0  0  0  0  0  0  0  0
  -52.6802   -1.8043   29.9685 H   0  0  0  0  0  0  0  0  0  0  0  0
  -52.8192   -0.2783   29.0312 H   0  0  0  0  0  0  0  0  0  0  0  0
  -54.1731   -1.4588   29.0312 H   0  0  0  0  0  0  0  0  0  0  0  0
  -52.2340   -2.1150   24.6150 H   0  0  0  0  0  0  0  0  0  0  0  0
  -54.3020   -0.4491   22.6588 H   0  0  0  0  0  0  0  0  0  0  0  0
  -54.2868   -0.4910   20.1979 H   0  0  0  0  0  0  0  0  0  0  0  0
  -50.0593    0.1785   20.2963 H   0  0  0  0  0  0  0  0  0  0  0  0
  -50.1056    0.2363   22.7743 H   0  0  0  0  0  0  0  0  0  0  0  0
  -52.3988    2.9206   27.2513 H   0  0  0  0  0  0  0  0  0  0  0  0
  -52.4245    5.3407   26.8458 H   0  0  0  0  0  0  0  0  0  0  0  0
  -52.0368    3.3099   20.6051 H   0  0  0  0  0  0  0  0  0  0  0  0
  1  2  1  0
  2  3  1  0
  3  4  2  0
  3  5  1  0
  5  6  1  0
  6  7  2  0
  7  8  1  0
  8  9  2  0
  9 10  1  0
 10 11  1  0
  9 12  1  0
 12 13  1  0
 13 14  1  0
 14 15  2  0
 15 16  1  0
 16 17  1  0
 17 18  1  0
 18 19  2  0
 19 20  1  0
 20 21  1  0
 19 22  1  0
 22 23  1  0
 23 24  1  0
 24 25  2  0
 25 26  1  0
 26 27  2  0
 27 28  1  0
 27 29  1  0
 29 30  2  0
 16 31  2  0
 31 32  1  0
 32 33  2  0
 12 34  2  0
 34  6  1  0
 33 14  1  0
 23 17  2  0
 30 24  1  0
  1 35  1  0
  1 36  1  0
  1 37  1  0
  2 38  1  0
  2 39  1  0
  5 40  1  0
  7 41  1  0
  8 42  1  0
 11 43  1  0
 11 44  1  0
 11 45  1  0
 13 46  1  0
 15 47  1  0
 21 48  1  0
 21 49  1  0
 21 50  1  0
 22 51  1  0
 25 52  1  0
 26 53  1  0
 29 54  1  0
 30 55  1  0
 31 56  1  0
 32 57  1  0
 34 58  1  0
M  END
>  <meeko>  (6) 
{"is_sidechain": [false], "free_energy": -8.372, "intermolecular_energy": -11.063, "internal_energy": -2.203}

$$$$
ligand_out
     RDKit          3D

 58 61  0  0  0  0  0  0  0  0999 V2000
  -50.1930    6.4090   22.3570 C   0  0  0  0  0  0  0  0  0  0  0  0
  -50.8860    6.3400   23.7130 C   0  0  0  0  0  0  0  0  0  0  0  0
  -51.1090    4.9370   24.2580 C   0  0  0  0  0  0  0  0  0  0  0  0
  -50.2190    4.3270   24.6710 O   0  0  0  0  0  0  0  0  0  0  0  0
  -52.4010    4.3290   24.2990 N   0  0  0  0  0  0  0  0  0  0  0  0
  -52.6120    3.0090   24.8310 C   0  0  0  0  0  0  0  0  0  0  0  0
  -53.0250    2.9450   26.1140 C   0  0  0  0  0  0  0  0  0  0  0  0
  -53.2190    1.7300   26.6810 C   0  0  0  0  0  0  0  0  0  0  0  0
  -52.9950    0.5690   26.0080 C   0  0  0  0  0  0  0  0  0  0  0  0
  -53.2550   -0.5280   26.7950 O   0  0  0  0  0  0  0  0  0  0  0  0
  -52.3470   -1.0370   27.6430 C   0  0  0  0  0  0  0  0  0  0  0  0
  -52.5720    0.6160   24.7030 C   0  0  0  0  0  0  0  0  0  0  0  0
  -52.3180   -0.5580   23.9350 N   0  0  0  0  0  0  0  0  0  0  0  0
  -52.5380   -0.6940   22.5230 C   0  0  0  0  0  0  0  0  0  0  0  0
  -51.5860   -0.4190   21.5710 C   0  0  0  0  0  0  0  0  0  0  0  0
  -51.8430   -0.5620   20.1970 C   0  0  0  0  0  0  0  0  0  0  0  0
  -50.7290   -0.2370   19.1780 C   0  0  0  0  0  0  0  0  0  0  0  0
  -50.8110   -0.6630   17.9750 N   0  0  0  0  0  0  0  0  0  0  0  0
  -49.7760   -0.3140   17.2610 C   0  0  0  0  0  0  0  0  0  0  0  0
  -49.4680   -0.6940   15.5270 S   0  0  0  0  0  0  0  0  0  0  0  0
  -47.8770   -1.5080   15.4440 C   0  0  0  0  0  0  0  0  0  0  0  0
  -48.9950    0.3580   18.0550 N   0  0  0  0  0  0  0  0  0  0  0  0
  -49.5380    0.4220   19.2210 C   0  0  0  0  0  0  0  0  0  0  0  0
  -48.8110    1.1510   20.3290 C   0  0  0  0  0  0  0  0  0  0  0  0
  -49.2250    2.4000   20.6820 C   0  0  0  0  0  0  0  0  0  0  0  0
  -48.6430    3.1050   21.6870 C   0  0  0  0  0  0  0  0  0  0  0  0
  -47.6260    2.5050   22.3530 C   0  0  0  0  0  0  0  0  0  0  0  0
  -47.0420    3.1820   23.3160 F   0  0  0  0  0  0  0  0  0  0  0  0
  -47.2010    1.2450   22.0370 C   0  0  0  0  0  0  0  0  0  0  0  0
  -47.8090    0.5530   21.0240 C   0  0  0  0  0  0  0  0  0  0  0  0
  -53.1020   -0.9930   19.8670 C   0  0  0  0  0  0  0  0  0  0  0  0
  -53.9880   -1.2410   20.8770 C   0  0  0  0  0  0  0  0  0  0  0  0
  -53.7010   -1.0660   22.1320 N   0  0  0  0  0  0  0  0  0  0  0  0
  -52.3620    1.8410   24.1310 C   0  0  0  0  0  0  0  0  0  0  0  0
  -49.1083    6.5170   22.5046 H   0  0  0  0  0  0  0  0  0  0  0  0
  -50.3963    5.4862   21.7939 H   0  0  0  0  0  0  0  0  0  0  0  0
  -50.5743    7.2736   21.7939 H   0  0  0  0  0  0  0  0  0  0  0  0
  -50.2702    6.8924   24.4380 H   0  0  0  0  0  0  0  0  0  0  0  0
  -51.8868    6.7720   23.5657 H   0  0  0  0  0  0  0  0  0  0  0  0
  -53.1730    4.8310   23.9520 H   0  0  0  0  0  0  0  0  0  0  0  0
  -53.2014    3.8650   26.6906 H   0  0  0  0  0  0  0  0  0  0  0  0
  -53.5700    1.6804   27.7223 H   0  0  0  0  0  0  0  0  0  0  0  0
  -52.6704   -0.8557   28.6786 H   0  0  0  0  0  0  0  0  0  0  0  0
  -52.2525   -2.1196   27.4726 H   0  0  0  0  0  0  0  0  0  0  0  0
  -51.3742   -0.5527   27.4726 H   0  0  0  0  0  0  0  0  0  0  0  0
  -51.9610   -1.3410   24.4140 H   0  0  0  0  0  0  0  0  0  0  0  0
  -50.5921   -0.0763   21.8945 H   0  0  0  0  0  0  0  0  0  0  0  0
  -47.5081   -1.6967   16.4630 H   0  0  0  0  0  0  0  0  0  0  0  0
  -47.9814   -2.4634   14.9090 H   0  0  0  0  0  0  0  0  0  0  0  0
  -47.1633   -0.8643   14.9090 H   0  0  0  0  0  0  0  0  0  0  0  0
  -48.1300    0.7540   17.8050 H   0  0  0  0  0  0  0  0  0  0  0  0
  -50.0623    2.8549   20.1324 H   0  0  0  0  0  0  0  0  0  0  0  0
  -48.9821    4.1182   21.9488 H   0  0  0  0  0  0  0  0  0  0  0  0
  -46.3714    0.7874   22.5959 H   0  0  0  0  0  0  0  0  0  0  0  0
  -47.4911   -0.4707   20.7771 H   0  0  0  0  0  0  0  0  0  0  0  0
  -53.3915   -1.1356   18.8154 H   0  0  0  0  0  0  0  0  0  0  0  0
  -54.9920   -1.6062   20.6152 H   0  0  0  0  0  0  0  0  0  0  0  0
  -51.9884    1.8988   23.0980 H   0  0  0  0  0  0  0  0  0  0  0  0
  1  2  1  0
  2  3  1  0
  3  4  2  0
  3  5  1  0
  5  6  1  0
  6  7  2  0
  7  8  1  0
  8  9  2  0
  9 10  1  0
 10 11  1  0
  9 12  1  0
 12 13  1  0
 13 14  1  0
 14 15  2  0
 15 16  1  0
 16 17  1  0
 17 18  1  0
 18 19  2  0
 19 20  1  0
 20 21  1  0
 19 22  1  0
 22 23  1  0
 23 24  1  0
 24 25  2  0
 25 26  1  0
 26 27  2  0
 27 28  1  0
 27 29  1  0
 29 30  2  0
 16 31  2  0
 31 32  1  0
 32 33  2  0
 12 34  2  0
 34  6  1  0
 33 14  1  0
 23 17  2  0
 30 24  1  0
  1 35  1  0
  1 36  1  0
  1 37  1  0
  2 38  1  0
  2 39  1  0
  5 40  1  0
  7 41  1  0
  8 42  1  0
 11 43  1  0
 11 44  1  0
 11 45  1  0
 13 46  1  0
 15 47  1  0
 21 48  1  0
 21 49  1  0
 21 50  1  0
 22 51  1  0
 25 52  1  0
 26 53  1  0
 29 54  1  0
 30 55  1  0
 31 56  1  0
 32 57  1  0
 34 58  1  0
M  END
>  <meeko>  (7) 
{"is_sidechain": [false], "free_energy": -7.865, "intermolecular_energy": -10.537, "internal_energy": -1.983}

$$$$
ligand_out
     RDKit          3D

 58 61  0  0  0  0  0  0  0  0999 V2000
  -46.7450   -1.4400   14.7740 C   0  0  0  0  0  0  0  0  0  0  0  0
  -48.2540   -1.6560   14.7950 C   0  0  0  0  0  0  0  0  0  0  0  0
  -48.9850   -1.0180   15.9680 C   0  0  0  0  0  0  0  0  0  0  0  0
  -48.3870   -0.5620   16.8450 O   0  0  0  0  0  0  0  0  0  0  0  0
  -50.4100   -0.9400   16.0290 N   0  0  0  0  0  0  0  0  0  0  0  0
  -51.0980   -0.3200   17.1310 C   0  0  0  0  0  0  0  0  0  0  0  0
  -50.7200    0.9390   17.4340 C   0  0  0  0  0  0  0  0  0  0  0  0
  -51.3130    1.5700   18.4760 C   0  0  0  0  0  0  0  0  0  0  0  0
  -52.2660    0.9720   19.2400 C   0  0  0  0  0  0  0  0  0  0  0  0
  -52.7110    1.8080   20.2380 O   0  0  0  0  0  0  0  0  0  0  0  0
  -52.0330    2.9040   20.6120 C   0  0  0  0  0  0  0  0  0  0  0  0
  -52.6610   -0.3100   18.9470 C   0  0  0  0  0  0  0  0  0  0  0  0
  -53.6530   -1.0000   19.7030 N   0  0  0  0  0  0  0  0  0  0  0  0
  -53.7470   -1.0180   21.1360 C   0  0  0  0  0  0  0  0  0  0  0  0
  -52.7960   -0.4840   21.9720 C   0  0  0  0  0  0  0  0  0  0  0  0
  -52.9240   -0.5270   23.3700 C   0  0  0  0  0  0  0  0  0  0  0  0
  -51.8200    0.0940   24.2530 C   0  0  0  0  0  0  0  0  0  0  0  0
  -50.9890    0.9300   23.7560 N   0  0  0  0  0  0  0  0  0  0  0  0
  -50.1160    1.3350   24.6370 C   0  0  0  0  0  0  0  0  0  0  0  0
  -48.7680    2.5020   24.3800 S   0  0  0  0  0  0  0  0  0  0  0  0
  -48.0590    2.1390   22.7780 C   0  0  0  0  0  0  0  0  0  0  0  0
  -50.4020    0.7170   25.7440 N   0  0  0  0  0  0  0  0  0  0  0  0
  -51.4240   -0.0430   25.5490 C   0  0  0  0  0  0  0  0  0  0  0  0
  -51.9460   -0.8780   26.6960 C   0  0  0  0  0  0  0  0  0  0  0  0
  -52.6730   -0.2740   27.6770 C   0  0  0  0  0  0  0  0  0  0  0  0
  -53.2020   -0.9630   28.7220 C   0  0  0  0  0  0  0  0  0  0  0  0
  -52.9920   -2.3010   28.7480 C   0  0  0  0  0  0  0  0  0  0  0  0
  -53.4830   -2.9770   29.7630 F   0  0  0  0  0  0  0  0  0  0  0  0
  -52.2840   -2.9410   27.7690 C   0  0  0  0  0  0  0  0  0  0  0  0
  -51.7680   -2.2240   26.7220 C   0  0  0  0  0  0  0  0  0  0  0  0
  -54.0560   -1.1340   23.8470 C   0  0  0  0  0  0  0  0  0  0  0  0
  -54.9500   -1.6420   22.9460 C   0  0  0  0  0  0  0  0  0  0  0  0
  -54.7640   -1.5950   21.6610 N   0  0  0  0  0  0  0  0  0  0  0  0
  -52.0540   -0.9550   17.9040 C   0  0  0  0  0  0  0  0  0  0  0  0
  -46.3679   -1.3860   15.8059 H   0  0  0  0  0  0  0  0  0  0  0  0
  -46.2619   -2.2781   14.2505 H   0  0  0  0  0  0  0  0  0  0  0  0
  -46.5164   -0.5000   14.2505 H   0  0  0  0  0  0  0  0  0  0  0  0
  -48.6704   -1.2378   13.8667 H   0  0  0  0  0  0  0  0  0  0  0  0
  -48.4052   -2.7409   14.8954 H   0  0  0  0  0  0  0  0  0  0  0  0
  -50.9390   -1.3230   15.2940 H   0  0  0  0  0  0  0  0  0  0  0  0
  -49.9421    1.4457   16.8440 H   0  0  0  0  0  0  0  0  0  0  0  0
  -51.0133    2.6017   18.7122 H   0  0  0  0  0  0  0  0  0  0  0  0
  -51.9998    2.9577   21.7102 H   0  0  0  0  0  0  0  0  0  0  0  0
  -51.0079    2.8539   20.2162 H   0  0  0  0  0  0  0  0  0  0  0  0
  -52.5355    3.7989   20.2162 H   0  0  0  0  0  0  0  0  0  0  0  0
  -54.3320   -1.5060   19.2000 H   0  0  0  0  0  0  0  0  0  0  0  0
  -51.9069   -0.0081   21.5326 H   0  0  0  0  0  0  0  0  0  0  0  0
  -47.0871    1.6414   22.9114 H   0  0  0  0  0  0  0  0  0  0  0  0
  -48.7363    1.4768   22.2188 H   0  0  0  0  0  0  0  0  0  0  0  0
  -47.9177    3.0757   22.2188 H   0  0  0  0  0  0  0  0  0  0  0  0
  -49.9160    0.8140   26.5950 H   0  0  0  0  0  0  0  0  0  0  0  0
  -52.8380    0.8121   27.6211 H   0  0  0  0  0  0  0  0  0  0  0  0
  -53.7756   -0.4564   29.5122 H   0  0  0  0  0  0  0  0  0  0  0  0
  -52.1291   -4.0288   27.8219 H   0  0  0  0  0  0  0  0  0  0  0  0
  -51.2182   -2.7305   25.9151 H   0  0  0  0  0  0  0  0  0  0  0  0
  -54.2410   -1.2107   24.9286 H   0  0  0  0  0  0  0  0  0  0  0  0
  -55.8689   -2.1121   23.3264 H   0  0  0  0  0  0  0  0  0  0  0  0
  -52.3305   -1.9951   17.6764 H   0  0  0  0  0  0  0  0  0  0  0  0
  1  2  1  0
  2  3  1  0
  3  4  2  0
  3  5  1  0
  5  6  1  0
  6  7  2  0
  7  8  1  0
  8  9  2  0
  9 10  1  0
 10 11  1  0
  9 12  1  0
 12 13  1  0
 13 14  1  0
 14 15  2  0
 15 16  1  0
 16 17  1  0
 17 18  1  0
 18 19  2  0
 19 20  1  0
 20 21  1  0
 19 22  1  0
 22 23  1  0
 23 24  1  0
 24 25  2  0
 25 26  1  0
 26 27  2  0
 27 28  1  0
 27 29  1  0
 29 30  2  0
 16 31  2  0
 31 32  1  0
 32 33  2  0
 12 34  2  0
 34  6  1  0
 33 14  1  0
 23 17  2  0
 30 24  1  0
  1 35  1  0
  1 36  1  0
  1 37  1  0
  2 38  1  0
  2 39  1  0
  5 40  1  0
  7 41  1  0
  8 42  1  0
 11 43  1  0
 11 44  1  0
 11 45  1  0
 13 46  1  0
 15 47  1  0
 21 48  1  0
 21 49  1  0
 21 50  1  0
 22 51  1  0
 25 52  1  0
 26 53  1  0
 29 54  1  0
 30 55  1  0
 31 56  1  0
 32 57  1  0
 34 58  1  0
M  END
>  <meeko>  (8) 
{"is_sidechain": [false], "free_energy": -7.855, "intermolecular_energy": -12.253, "internal_energy": -0.253}

$$$$
ligand_out
     RDKit          3D

 58 61  0  0  0  0  0  0  0  0999 V2000
  -53.0140   -1.6140   29.7970 C   0  0  0  0  0  0  0  0  0  0  0  0
  -52.7340   -2.4680   28.5660 C   0  0  0  0  0  0  0  0  0  0  0  0
  -52.1800   -1.7130   27.3650 C   0  0  0  0  0  0  0  0  0  0  0  0
  -51.6220   -2.2830   26.5290 O   0  0  0  0  0  0  0  0  0  0  0  0
  -52.3360   -0.3020   27.2110 N   0  0  0  0  0  0  0  0  0  0  0  0
  -51.8270    0.4070   26.0660 C   0  0  0  0  0  0  0  0  0  0  0  0
  -50.6000    0.9510   26.2020 C   0  0  0  0  0  0  0  0  0  0  0  0
  -50.0740    1.6510   25.1680 C   0  0  0  0  0  0  0  0  0  0  0  0
  -50.7490    1.8410   24.0020 C   0  0  0  0  0  0  0  0  0  0  0  0
  -50.0130    2.5870   23.1110 O   0  0  0  0  0  0  0  0  0  0  0  0
  -50.1620    3.9150   22.9890 C   0  0  0  0  0  0  0  0  0  0  0  0
  -51.9990    1.2960   23.8480 C   0  0  0  0  0  0  0  0  0  0  0  0
  -52.7630    1.4520   22.6540 N   0  0  0  0  0  0  0  0  0  0  0  0
  -52.6880    0.6030   21.4990 C   0  0  0  0  0  0  0  0  0  0  0  0
  -51.6510    0.6280   20.5980 C   0  0  0  0  0  0  0  0  0  0  0  0
  -51.6180   -0.2180   19.4770 C   0  0  0  0  0  0  0  0  0  0  0  0
  -50.4220   -0.1420   18.5020 C   0  0  0  0  0  0  0  0  0  0  0  0
  -50.4830   -0.7120   17.3600 N   0  0  0  0  0  0  0  0  0  0  0  0
  -49.3800   -0.5630   16.6790 C   0  0  0  0  0  0  0  0  0  0  0  0
  -49.0200   -1.1970   15.0310 S   0  0  0  0  0  0  0  0  0  0  0  0
  -47.4530   -2.0520   15.1290 C   0  0  0  0  0  0  0  0  0  0  0  0
  -48.5760    0.1270   17.4330 N   0  0  0  0  0  0  0  0  0  0  0  0
  -49.1720    0.3970   18.5430 C   0  0  0  0  0  0  0  0  0  0  0  0
  -48.4320    1.1900   19.5970 C   0  0  0  0  0  0  0  0  0  0  0  0
  -47.9390    0.5400   20.6890 C   0  0  0  0  0  0  0  0  0  0  0  0
  -47.2380    1.1790   21.6620 C   0  0  0  0  0  0  0  0  0  0  0  0
  -47.0250    2.5070   21.4990 C   0  0  0  0  0  0  0  0  0  0  0  0
  -46.3630    3.1400   22.4420 F   0  0  0  0  0  0  0  0  0  0  0  0
  -47.4890    3.1840   20.4050 C   0  0  0  0  0  0  0  0  0  0  0  0
  -48.1870    2.5160   19.4350 C   0  0  0  0  0  0  0  0  0  0  0  0
  -52.6850   -1.0680   19.3380 C   0  0  0  0  0  0  0  0  0  0  0  0
  -53.6750   -1.0250   20.2790 C   0  0  0  0  0  0  0  0  0  0  0  0
  -53.6630   -0.2010   21.2840 N   0  0  0  0  0  0  0  0  0  0  0  0
  -52.5390    0.6000   24.8940 C   0  0  0  0  0  0  0  0  0  0  0  0
  -52.8204   -2.2045   30.7047 H   0  0  0  0  0  0  0  0  0  0  0  0
  -52.3584   -0.7308   29.7874 H   0  0  0  0  0  0  0  0  0  0  0  0
  -54.0653   -1.2904   29.7874 H   0  0  0  0  0  0  0  0  0  0  0  0
  -52.0046   -3.2418   28.8475 H   0  0  0  0  0  0  0  0  0  0  0  0
  -53.7058   -2.8744   28.2491 H   0  0  0  0  0  0  0  0  0  0  0  0
  -52.8080    0.2030   27.9110 H   0  0  0  0  0  0  0  0  0  0  0  0
  -50.0353    0.8282   27.1379 H   0  0  0  0  0  0  0  0  0  0  0  0
  -49.0669    2.0803   25.2749 H   0  0  0  0  0  0  0  0  0  0  0  0
  -50.2132    4.3716   23.9885 H   0  0  0  0  0  0  0  0  0  0  0  0
  -49.3049    4.3312   22.4393 H   0  0  0  0  0  0  0  0  0  0  0  0
  -51.0900    4.1309   22.4393 H   0  0  0  0  0  0  0  0  0  0  0  0
  -53.3950    2.2060   22.6200 H   0  0  0  0  0  0  0  0  0  0  0  0
  -50.8213    1.3320   20.7594 H   0  0  0  0  0  0  0  0  0  0  0  0
  -47.1815   -2.2001   16.1846 H   0  0  0  0  0  0  0  0  0  0  0  0
  -47.5368   -3.0294   14.6313 H   0  0  0  0  0  0  0  0  0  0  0  0
  -46.6765   -1.4526   14.6313 H   0  0  0  0  0  0  0  0  0  0  0  0
  -47.6610    0.3990   17.1950 H   0  0  0  0  0  0  0  0  0  0  0  0
  -48.1151   -0.5415   20.7861 H   0  0  0  0  0  0  0  0  0  0  0  0
  -46.8598    0.6413   22.5439 H   0  0  0  0  0  0  0  0  0  0  0  0
  -47.3017    4.2633   20.3046 H   0  0  0  0  0  0  0  0  0  0  0  0
  -48.5437    3.0448   18.5388 H   0  0  0  0  0  0  0  0  0  0  0  0
  -52.7426   -1.7668   18.4905 H   0  0  0  0  0  0  0  0  0  0  0  0
  -54.5217   -1.7204   20.1813 H   0  0  0  0  0  0  0  0  0  0  0  0
  -53.5545    0.1871   24.8030 H   0  0  0  0  0  0  0  0  0  0  0  0
  1  2  1  0
  2  3  1  0
  3  4  2  0
  3  5  1  0
  5  6  1  0
  6  7  2  0
  7  8  1  0
  8  9  2  0
  9 10  1  0
 10 11  1  0
  9 12  1  0
 12 13  1  0
 13 14  1  0
 14 15  2  0
 15 16  1  0
 16 17  1  0
 17 18  1  0
 18 19  2  0
 19 20  1  0
 20 21  1  0
 19 22  1  0
 22 23  1  0
 23 24  1  0
 24 25  2  0
 25 26  1  0
 26 27  2  0
 27 28  1  0
 27 29  1  0
 29 30  2  0
 16 31  2  0
 31 32  1  0
 32 33  2  0
 12 34  2  0
 34  6  1  0
 33 14  1  0
 23 17  2  0
 30 24  1  0
  1 35  1  0
  1 36  1  0
  1 37  1  0
  2 38  1  0
  2 39  1  0
  5 40  1  0
  7 41  1  0
  8 42  1  0
 11 43  1  0
 11 44  1  0
 11 45  1  0
 13 46  1  0
 15 47  1  0
 21 48  1  0
 21 49  1  0
 21 50  1  0
 22 51  1  0
 25 52  1  0
 26 53  1  0
 29 54  1  0
 30 55  1  0
 31 56  1  0
 32 57  1  0
 34 58  1  0
M  END
>  <meeko>  (9) 
{"is_sidechain": [false], "free_energy": -7.809, "intermolecular_energy": -10.494, "internal_energy": -1.944}

$$$$
